REMARK  Name = 
REMARK  7 active torsions:
REMARK  status: ('A' for Active; 'I' for Inactive)
REMARK    1  A    between atoms: C_1  and  C_2
REMARK    2  A    between atoms: C_2  and  C_3
REMARK    3  A    between atoms: C_3  and  C_4
REMARK    4  A    between atoms: C_4  and  N_5
REMARK    5  A    between atoms: C_8  and  N_9
REMARK    6  A    between atoms: N_9  and  C_10
REMARK    7  A    between atoms: C_11  and  C_12
REMARK                            x       y       z     vdW  Elec       q    Type
REMARK                         _______ _______ _______ _____ _____    ______ ____
ROOT
ATOM      1  N   UNL     1      -1.311  -1.136   2.103  0.00  0.00    -0.234 NA
ATOM      2  C   UNL     1      -1.965  -0.705   1.228  0.00  0.00    +0.035 C 
ATOM      3  C   UNL     1      -2.629  -0.288   0.318  0.00  0.00    -0.034 C 
ATOM      4  C   UNL     1      -3.330   0.139  -0.688  0.00  0.00    +0.134 C 
ENDROOT
BRANCH   4   5
ATOM      5  N   UNL     1      -3.799   1.420  -0.737  0.00  0.00    -0.320 N 
ATOM      6  H   UNL     1      -3.591   2.005   0.071  0.00  0.00    +0.152 HD
BRANCH   5   7
ATOM      7  C   UNL     1      -4.520   2.006  -1.747  0.00  0.00    +0.075 C 
ATOM      8  C   UNL     1      -4.971   3.265  -1.772  0.00  0.00    +0.058 C 
BRANCH   8   9
ATOM      9  C   UNL     1      -5.731   3.754  -2.936  0.00  0.00    +0.252 C 
ATOM     10  O   UNL     1      -6.152   4.903  -2.983  0.00  0.00    -0.296 OA
ENDBRANCH   8   9
ENDBRANCH   5   7
ENDBRANCH   4   5
BRANCH   1  11
ATOM     11  C   UNL     1      -0.031  -0.449   2.341  0.00  0.00    +0.153 C 
BRANCH  11  12
ATOM     12  C   UNL     1       1.137  -1.349   1.931  0.00  0.00    +0.024 C 
BRANCH  12  14
ATOM     13  C   UNL     1       1.516  -0.357  -0.393  0.00  0.00    +0.004 C 
ATOM     14  C   UNL     1       1.255  -1.612   0.426  0.00  0.00    -0.002 C 
ENDBRANCH  12  14
ENDBRANCH  11  12
ENDBRANCH   1  11
TORSDOF 6
