REMARK  Name = 
REMARK  13 active torsions:
REMARK  status: ('A' for Active; 'I' for Inactive)
REMARK    1  A    between atoms: C_6  and  N_7
REMARK    2  A    between atoms: C_8  and  C_9
REMARK    3  A    between atoms: C_8  and  C_12
REMARK    4  A    between atoms: C_10  and  C_11
REMARK    5  A    between atoms: C_13  and  C_14
REMARK    6  A    between atoms: C_19  and  C_20
REMARK    7  A    between atoms: C_20  and  N_21
REMARK    8  A    between atoms: N_21  and  N_22
REMARK    9  A    between atoms: C_23  and  C_24
REMARK   10  A    between atoms: C_24  and  C_25
REMARK   11  A    between atoms: C_26  and  C_27
REMARK   12  A    between atoms: C_27  and  C_28
REMARK   13  A    between atoms: C_27  and  C_29
REMARK                            x       y       z     vdW  Elec       q    Type
REMARK                         _______ _______ _______ _____ _____    ______ ____
ROOT
ATOM      1  C   UNL     1      -4.530   5.854   1.271  0.00  0.00    -0.020 A 
ATOM      2  C   UNL     1      -5.306   5.605   2.426  0.00  0.00    +0.008 A 
ATOM      3  C   UNL     1      -6.309   6.480   2.838  0.00  0.00    +0.001 A 
ATOM      4  C   UNL     1      -6.554   7.630   2.102  0.00  0.00    +0.000 A 
ATOM      5  C   UNL     1      -5.827   7.876   0.935  0.00  0.00    +0.006 A 
ATOM      6  C   UNL     1      -4.835   6.979   0.479  0.00  0.00    -0.022 A 
ENDROOT
BRANCH   1   8
ATOM      7  C   UNL     1      -2.662   4.399   1.892  0.00  0.00    +0.028 C 
ATOM      8  C   UNL     1      -3.468   4.884   0.935  0.00  0.00    +0.010 C 
BRANCH   7  10
ATOM      9  N   UNL     1      -1.418   2.916   0.466  0.00  0.00    -0.251 NA
ATOM     10  C   UNL     1      -1.634   3.318   1.679  0.00  0.00    +0.064 C 
BRANCH   9  16
ATOM     11  C   UNL     1       0.132   2.247  -1.308  0.00  0.00    +0.156 C 
ATOM     12  N   UNL     1       1.336   1.436  -1.531  0.00  0.00    -0.344 N 
ATOM     13  C   UNL     1       1.442   0.196  -0.948  0.00  0.00    +0.068 C 
ATOM     14  C   UNL     1       0.706  -0.148   0.121  0.00  0.00    +0.017 C 
ATOM     15  C   UNL     1      -0.212   0.815   0.701  0.00  0.00    +0.026 C 
ATOM     16  C   UNL     1      -0.487   1.981   0.077  0.00  0.00    +0.059 C 
ATOM     17  H   UNL     1       1.711   1.496  -2.475  0.00  0.00    +0.146 HD
ENDBRANCH   9  16
BRANCH  10  18
ATOM     18  C   UNL     1      -0.942   2.939   2.966  0.00  0.00    +0.023 C 
ATOM     19  C   UNL     1      -1.598   2.941   4.143  0.00  0.00    -0.028 C 
ATOM     20  C   UNL     1      -0.955   2.916   5.491  0.00  0.00    +0.035 C 
ENDBRANCH  10  18
ENDBRANCH   7  10
ENDBRANCH   1   8
BRANCH   6  21
ATOM     21  C   UNL     1      -4.167   7.276  -0.851  0.00  0.00    +0.158 C 
BRANCH  21  22
ATOM     22  N   UNL     1      -2.991   8.144  -0.712  0.00  0.00    -0.265 N 
ATOM     23  H   UNL     1      -2.362   7.712  -0.032  0.00  0.00    +0.168 HD
BRANCH  22  24
ATOM     24  N   UNL     1      -2.350   8.476  -1.870  0.00  0.00    -0.198 NA
ATOM     25  C   UNL     1      -1.256   9.151  -1.681  0.00  0.00    +0.115 C 
BRANCH  25  26
ATOM     26  C   UNL     1      -0.417   9.639  -2.835  0.00  0.00    +0.137 C 
BRANCH  26  27
ATOM     27  C   UNL     1       0.978   9.181  -2.735  0.00  0.00    -0.096 C 
ATOM     28  C   UNL     1       2.138   8.848  -2.711  0.00  0.00    -0.099 C 
BRANCH  28  29
ATOM     29  C   UNL     1       3.566   8.470  -2.743  0.00  0.00    +0.058 C 
ATOM     30  C   UNL     1       4.069   8.091  -1.352  0.00  0.00    +0.021 C 
ATOM     31  C   UNL     1       3.794   7.319  -3.719  0.00  0.00    +0.021 C 
ENDBRANCH  28  29
ENDBRANCH  26  27
ENDBRANCH  25  26
ENDBRANCH  22  24
ENDBRANCH  21  22
ENDBRANCH   6  21
TORSDOF 10
