REMARK  Name = 
REMARK  12 active torsions:
REMARK  status: ('A' for Active; 'I' for Inactive)
REMARK    1  A    between atoms: C_4  and  C_10
REMARK    2  A    between atoms: N_11  and  C_12
REMARK    3  A    between atoms: C_13  and  C_14
REMARK    4  A    between atoms: C_14  and  C_15
REMARK    5  A    between atoms: C_14  and  C_16
REMARK    6  A    between atoms: C_17  and  C_18
REMARK    7  A    between atoms: C_17  and  C_26
REMARK    8  A    between atoms: C_18  and  N_19
REMARK    9  A    between atoms: N_19  and  C_20
REMARK   10  A    between atoms: C_20  and  C_21
REMARK   11  A    between atoms: C_21  and  C_22
REMARK   12  A    between atoms: C_22  and  C_23
REMARK                            x       y       z     vdW  Elec       q    Type
REMARK                         _______ _______ _______ _____ _____    ______ ____
ROOT
ATOM      1  C   UNL     1       9.310  -1.191   8.185  0.00  0.00    +0.107 C 
ATOM      2  C   UNL     1      10.179  -0.873   7.197  0.00  0.00    -0.000 C 
ENDROOT
BRANCH   1   4
ATOM      3  C   UNL     1       7.206  -1.578   9.061  0.00  0.00    +0.123 C 
ATOM      4  N   UNL     1       7.934  -1.339   8.001  0.00  0.00    -0.263 NA
BRANCH   3   8
ATOM      5  C   UNL     1       2.978  -2.729  11.513  0.00  0.00    +0.062 C 
ATOM      6  C   UNL     1       4.464  -2.373  11.368  0.00  0.00    +0.029 C 
ATOM      7  C   UNL     1       5.131  -2.093  10.268  0.00  0.00    -0.118 C 
ATOM      8  C   UNL     1       5.706  -1.830   9.108  0.00  0.00    +0.026 C 
ATOM      9  C   UNL     1       4.962  -1.899   7.775  0.00  0.00    +0.126 C 
ATOM     10  N   UNL     1       3.502  -1.653   7.767  0.00  0.00    -0.308 NA
ATOM     11  C   UNL     1       2.655  -2.858   7.794  0.00  0.00    +0.108 C 
ATOM     12  C   UNL     1       2.642  -3.453   9.168  0.00  0.00    -0.016 C 
ATOM     13  C   UNL     1       2.225  -2.715  10.213  0.00  0.00    -0.025 C 
ATOM     14  H   UNL     1       3.267  -1.064   8.566  0.00  0.00    +0.123 HD
ENDBRANCH   3   8
ENDBRANCH   1   4
BRANCH   2  15
ATOM     15  C   UNL     1      11.718  -0.782   7.231  0.00  0.00    +0.033 C 
ATOM     16  C   UNL     1      12.233   0.604   6.783  0.00  0.00    +0.016 C 
BRANCH  15  17
ATOM     17  C   UNL     1      12.356  -1.067   8.577  0.00  0.00    -0.019 C 
ATOM     18  C   UNL     1      13.281  -1.989   8.932  0.00  0.00    -0.062 C 
ATOM     19  C   UNL     1      13.855  -1.944  10.334  0.00  0.00    +0.040 C 
BRANCH  18  20
ATOM     20  C   UNL     1      13.887  -3.081   8.065  0.00  0.00    +0.111 C 
BRANCH  20  21
ATOM     21  N   UNL     1      13.575  -4.383   8.657  0.00  0.00    -0.312 NA
ATOM     22  H   UNL     1      12.564  -4.507   8.630  0.00  0.00    +0.122 HD
BRANCH  21  23
ATOM     23  C   UNL     1      14.223  -5.510   7.987  0.00  0.00    +0.081 C 
BRANCH  23  24
ATOM     24  C   UNL     1      13.814  -6.805   8.707  0.00  0.00    +0.020 C 
BRANCH  24  25
ATOM     25  C   UNL     1      14.407  -8.052   8.046  0.00  0.00    +0.037 C 
BRANCH  25  26
ATOM     26  C   UNL     1      13.956  -9.307   8.741  0.00  0.00    +0.024 C 
ATOM     27  C   UNL     1      13.262 -10.257   8.185  0.00  0.00    -0.132 C 
ATOM     28  C   UNL     1      12.573 -11.208   7.634  0.00  0.00    +0.068 C 
ENDBRANCH  25  26
ENDBRANCH  24  25
ENDBRANCH  23  24
ENDBRANCH  21  23
ENDBRANCH  20  21
ENDBRANCH  18  20
ENDBRANCH  15  17
ENDBRANCH   2  15
TORSDOF 10
