REMARK  Name = 
REMARK  0 active torsions:
REMARK  status: ('A' for Active; 'I' for Inactive)
REMARK                            x       y       z     vdW  Elec       q    Type
REMARK                         _______ _______ _______ _____ _____    ______ ____
ROOT
ATOM      1  C   UNL     1      -1.197  -1.068   1.852  0.00  0.00    -0.006 A 
ATOM      2  C   UNL     1      -1.460  -0.557   3.136  0.00  0.00    +0.007 A 
ATOM      3  C   UNL     1      -2.389  -1.259   3.969  0.00  0.00    +0.009 A 
ATOM      4  C   UNL     1      -2.924  -2.538   3.573  0.00  0.00    -0.010 A 
ATOM      5  C   UNL     1      -2.028  -3.236   2.686  0.00  0.00    +0.009 A 
ATOM      6  C   UNL     1      -1.141  -2.483   1.843  0.00  0.00    +0.007 A 
ATOM      7  C   UNL     1      -4.611  -2.516   3.017  0.00  0.00    +0.025 C 
ATOM      8  C   UNL     1      -5.428  -1.900   3.883  0.00  0.00    +0.027 C 
ATOM      9  C   UNL     1      -4.012  -1.698   1.884  0.00  0.00    -0.063 C 
ATOM     10  C   UNL     1      -3.498  -0.995   0.913  0.00  0.00    -0.060 C 
ATOM     11  C   UNL     1      -2.189  -0.452   0.728  0.00  0.00    +0.177 C 
ATOM     12  C   UNL     1      -2.175   0.961   0.359  0.00  0.00    -0.062 C 
ATOM     13  C   UNL     1      -1.829   0.205  -0.510  0.00  0.00    -0.062 C 
ENDROOT
TORSDOF 0
