REMARK  Name = 
REMARK  6 active torsions:
REMARK  status: ('A' for Active; 'I' for Inactive)
REMARK    1  A    between atoms: C_8  and  C_9
REMARK    2  A    between atoms: C_10  and  C_20
REMARK    3  A    between atoms: C_11  and  C_12
REMARK    4  A    between atoms: C_17  and  N_18
REMARK    5  A    between atoms: N_18  and  C_19
REMARK    6  A    between atoms: C_20  and  C_21
REMARK                            x       y       z     vdW  Elec       q    Type
REMARK                         _______ _______ _______ _____ _____    ______ ____
ROOT
ATOM      1  C   UNL     1       2.116  -0.121   1.419  0.00  0.00    +0.070 C 
ATOM      2  C   UNL     1       2.965  -0.674   2.544  0.00  0.00    -0.009 C 
ATOM      3  C   UNL     1       4.252  -0.532   2.231  0.00  0.00    +0.064 C 
ATOM      4  N   UNL     1       4.426  -0.008   0.973  0.00  0.00    -0.332 N 
ATOM      5  C   UNL     1       3.146   0.027   0.235  0.00  0.00    +0.091 C 
ATOM      6  N   UNL     1       2.887   1.159  -0.639  0.00  0.00    -0.285 NA
ATOM      7  C   UNL     1       3.013  -1.269  -0.626  0.00  0.00    +0.072 C 
ATOM      8  C   UNL     1       3.842  -1.251  -1.888  0.00  0.00    -0.068 C 
ATOM      9  C   UNL     1       4.180  -2.610  -2.436  0.00  0.00    +0.039 C 
ATOM     10  C   UNL     1       4.251  -0.067  -2.409  0.00  0.00    -0.043 C 
ATOM     11  C   UNL     1       3.870   1.286  -1.744  0.00  0.00    +0.112 C 
ATOM     12  H   UNL     1       4.800   0.936   1.045  0.00  0.00    +0.147 HD
ATOM     13  H   UNL     1       2.870   2.034  -0.120  0.00  0.00    +0.125 HD
ENDROOT
BRANCH  11  14
ATOM     14  C   UNL     1       5.096   2.136  -1.351  0.00  0.00    -0.009 C 
ATOM     15  C   UNL     1       6.286   1.535  -0.896  0.00  0.00    +0.014 C 
ATOM     16  C   UNL     1       7.440   2.288  -0.734  0.00  0.00    +0.072 C 
ATOM     17  C   UNL     1       7.407   3.607  -1.123  0.00  0.00    -0.016 C 
ATOM     18  N   UNL     1       6.289   4.226  -1.562  0.00  0.00    -0.218 NA
ATOM     19  C   UNL     1       5.092   3.565  -1.493  0.00  0.00    +0.211 C 
BRANCH  19  20
ATOM     20  N   UNL     1       4.338   4.081  -0.239  0.00  0.00    -0.294 NA
ATOM     21  C   UNL     1       4.434   5.552  -0.162  0.00  0.00    +0.103 C 
ATOM     22  H   UNL     1       4.909   3.709   0.521  0.00  0.00    +0.124 HD
ENDBRANCH  19  20
ENDBRANCH  11  14
BRANCH  10  23
ATOM     23  C   UNL     1       5.164  -0.022  -3.621  0.00  0.00    +0.103 C 
BRANCH  23  24
ATOM     24  C   UNL     1       4.608   0.682  -4.844  0.00  0.00    +0.227 C 
ATOM     25  O   UNL     1       3.772   1.578  -4.843  0.00  0.00    -0.301 OA
ENDBRANCH  23  24
ENDBRANCH  10  23
TORSDOF 4
