REMARK  Name = 
REMARK  8 active torsions:
REMARK  status: ('A' for Active; 'I' for Inactive)
REMARK    1  A    between atoms: C_1  and  O_2
REMARK    2  A    between atoms: O_2  and  C_3
REMARK    3  A    between atoms: C_13  and  C_14
REMARK    4  A    between atoms: C_16  and  C_17
REMARK    5  A    between atoms: C_18  and  C_19
REMARK    6  A    between atoms: C_20  and  C_21
REMARK    7  A    between atoms: C_21  and  O_22
REMARK    8  A    between atoms: C_21  and  C_23
REMARK                            x       y       z     vdW  Elec       q    Type
REMARK                         _______ _______ _______ _____ _____    ______ ____
ROOT
ATOM      1  C   UNL     1       1.844  -2.452  -0.610  0.00  0.00    +0.148 C 
ATOM      2  C   UNL     1       2.190  -2.330   0.857  0.00  0.00    +0.001 C 
ATOM      3  C   UNL     1       1.967  -3.445   1.580  0.00  0.00    -0.024 C 
ATOM      4  C   UNL     1       0.676  -3.573   2.353  0.00  0.00    +0.026 C 
ATOM      5  C   UNL     1       0.457  -2.667   3.574  0.00  0.00    +0.060 C 
ATOM      6  C   UNL     1      -0.946  -2.187   3.441  0.00  0.00    +0.026 C 
ATOM      7  C   UNL     1      -1.523  -2.556   2.280  0.00  0.00    +0.029 C 
ATOM      8  N   UNL     1      -1.441  -1.235   2.616  0.00  0.00    -0.318 N 
ATOM      9  C   UNL     1      -0.616  -3.443   1.486  0.00  0.00    +0.043 C 
ATOM     10  C   UNL     1      -0.554  -3.244  -0.060  0.00  0.00    +0.021 C 
ATOM     11  C   UNL     1       0.313  -2.155  -0.769  0.00  0.00    +0.053 C 
ATOM     12  H   UNL     1      -0.720  -0.730   2.107  0.00  0.00    +0.152 HD
ENDROOT
BRANCH  11  13
ATOM     13  C   UNL     1      -0.104  -0.733  -0.423  0.00  0.00    +0.030 C 
ATOM     14  C   UNL     1      -1.308  -0.261  -0.510  0.00  0.00    -0.124 C 
ATOM     15  C   UNL     1      -2.523   0.212  -0.494  0.00  0.00    +0.051 C 
BRANCH  15  16
ATOM     16  C   UNL     1      -3.644  -0.558  -0.968  0.00  0.00    +0.008 C 
ATOM     17  C   UNL     1      -4.896  -0.349  -0.526  0.00  0.00    +0.000 C 
BRANCH  17  18
ATOM     18  C   UNL     1      -6.040  -1.090  -1.010  0.00  0.00    -0.002 C 
ATOM     19  C   UNL     1      -7.290  -0.882  -0.557  0.00  0.00    +0.004 C 
BRANCH  19  20
ATOM     20  C   UNL     1      -8.523  -1.572  -1.075  0.00  0.00    +0.134 C 
ATOM     21  C   UNL     1      -9.574  -1.795   0.006  0.00  0.00    +0.042 C 
BRANCH  20  22
ATOM     22  O   UNL     1      -8.190  -2.831  -1.646  0.00  0.00    -0.388 OA
ATOM     23  H   UNL     1      -7.732  -3.340  -0.953  0.00  0.00    +0.210 HD
ENDBRANCH  20  22
ENDBRANCH  19  20
ENDBRANCH  17  18
ENDBRANCH  15  16
ENDBRANCH  11  13
BRANCH   1  25
ATOM     24  C   UNL     1       3.993  -2.033  -1.522  0.00  0.00    +0.194 C 
ATOM     25  O   UNL     1       2.642  -1.587  -1.416  0.00  0.00    -0.375 OA
ENDBRANCH   1  25
TORSDOF 6
