REMARK  Name = 
REMARK  1 active torsions:
REMARK  status: ('A' for Active; 'I' for Inactive)
REMARK    1  A    between atoms: C_6  and  C_7
REMARK                            x       y       z     vdW  Elec       q    Type
REMARK                         _______ _______ _______ _____ _____    ______ ____
ROOT
ATOM      1  C   UNL     1      -0.390   1.212   0.079  0.00  0.00    +0.044 C 
ATOM      2  C   UNL     1      -1.290  -0.009  -0.061  0.00  0.00    +0.059 C 
ATOM      3  C   UNL     1      -0.311  -1.135   0.094  0.00  0.00    +0.033 C 
ATOM      4  N   UNL     1      -0.646  -2.365   0.273  0.00  0.00    -0.304 NA
ATOM      5  C   UNL     1       1.077  -0.682  -0.010  0.00  0.00    +0.029 C 
ATOM      6  C   UNL     1       0.988   0.649  -0.038  0.00  0.00    -0.006 C 
ATOM      7  H   UNL     1      -1.667  -2.459   0.315  0.00  0.00    +0.186 HD
ENDROOT
BRANCH   6   8
ATOM      8  C   UNL     1       2.168   1.515  -0.163  0.00  0.00    +0.254 C 
ATOM      9  O   UNL     1       2.077   2.736  -0.174  0.00  0.00    -0.296 OA
ENDBRANCH   6   8
TORSDOF 1
