REMARK  Name = 
REMARK  18 active torsions:
REMARK  status: ('A' for Active; 'I' for Inactive)
REMARK    1  A    between atoms: C_1  and  C_2
REMARK    2  A    between atoms: C_3  and  C_4
REMARK    3  A    between atoms: C_4  and  C_5
REMARK    4  A    between atoms: C_6  and  C_7
REMARK    5  A    between atoms: C_6  and  C_8
REMARK    6  A    between atoms: C_8  and  C_9
REMARK    7  A    between atoms: C_8  and  C_11
REMARK    8  A    between atoms: C_11  and  N_21
REMARK    9  A    between atoms: C_12  and  N_13
REMARK   10  A    between atoms: C_14  and  C_15
REMARK   11  A    between atoms: C_15  and  C_16
REMARK   12  A    between atoms: C_16  and  C_17
REMARK   13  A    between atoms: C_17  and  C_18
REMARK   14  A    between atoms: C_19  and  C_20
REMARK   15  A    between atoms: N_21  and  C_22
REMARK   16  A    between atoms: C_24  and  C_25
REMARK   17  A    between atoms: C_24  and  C_26
REMARK   18  A    between atoms: C_26  and  C_27
REMARK                            x       y       z     vdW  Elec       q    Type
REMARK                         _______ _______ _______ _____ _____    ______ ____
ROOT
ATOM      1  C   UNL     1       7.296   2.147   3.276  0.00  0.00    +0.040 C 
ATOM      2  C   UNL     1       6.465   2.718   4.179  0.00  0.00    +0.130 C 
ENDROOT
BRANCH   2   3
ATOM      3  N   UNL     1       5.119   2.658   4.375  0.00  0.00    -0.266 NA
ATOM      4  C   UNL     1       4.325   3.095   3.464  0.00  0.00    +0.083 C 
BRANCH   4   5
ATOM      5  C   UNL     1       2.878   3.331   3.828  0.00  0.00    +0.047 C 
BRANCH   5   6
ATOM      6  C   UNL     1       2.632   4.837   3.924  0.00  0.00    +0.010 C 
BRANCH   6   7
ATOM      7  C   UNL     1       2.756   5.542   2.570  0.00  0.00    +0.027 C 
BRANCH   7   8
ATOM      8  C   UNL     1       2.530   7.016   2.725  0.00  0.00    -0.031 C 
ATOM      9  C   UNL     1       1.546   7.695   2.121  0.00  0.00    -0.034 C 
ATOM     10  C   UNL     1       1.321   9.158   2.315  0.00  0.00    +0.035 C 
ENDBRANCH   7   8
ENDBRANCH   6   7
ENDBRANCH   5   6
ENDBRANCH   4   5
ENDBRANCH   2   3
BRANCH   1  11
ATOM     11  N   UNL     1       8.682   2.129   3.548  0.00  0.00    -0.315 N 
ATOM     12  H   UNL     1       9.302   1.803   2.820  0.00  0.00    +0.152 HD
BRANCH  11  13
ATOM     13  C   UNL     1       9.316   2.264   4.769  0.00  0.00    +0.124 C 
ATOM     14  C   UNL     1      10.610   2.259   4.894  0.00  0.00    -0.106 C 
ATOM     15  C   UNL     1      11.889   2.261   5.168  0.00  0.00    -0.030 C 
ATOM     16  C   UNL     1      12.533   1.125   5.918  0.00  0.00    +0.048 C 
BRANCH  15  17
ATOM     17  C   UNL     1      12.773   3.464   4.926  0.00  0.00    +0.035 C 
ATOM     18  C   UNL     1      12.797   4.421   6.113  0.00  0.00    +0.009 C 
ENDBRANCH  15  17
ENDBRANCH  11  13
ENDBRANCH   1  11
BRANCH   1  19
ATOM     19  C   UNL     1       6.785   1.386   2.013  0.00  0.00    +0.123 C 
BRANCH  19  22
ATOM     20  C   UNL     1       6.582   1.754  -0.560  0.00  0.00    -0.051 C 
ATOM     21  C   UNL     1       5.158   1.248  -0.642  0.00  0.00    +0.044 C 
ATOM     22  C   UNL     1       7.294   1.859   0.608  0.00  0.00    -0.054 C 
ATOM     23  C   UNL     1       8.714   2.392   0.585  0.00  0.00    +0.040 C 
BRANCH  20  26
ATOM     24  C   UNL     1       7.618   2.886  -4.128  0.00  0.00    +0.035 C 
ATOM     25  C   UNL     1       6.729   2.592  -2.954  0.00  0.00    -0.030 C 
ATOM     26  C   UNL     1       7.228   2.018  -1.852  0.00  0.00    -0.001 C 
ENDBRANCH  20  26
ENDBRANCH  19  22
BRANCH  19  27
ATOM     27  C   UNL     1       7.130  -0.079   2.272  0.00  0.00    +0.237 C 
ATOM     28  O   UNL     1       7.693  -0.836   1.485  0.00  0.00    -0.300 OA
ENDBRANCH  19  27
ENDBRANCH   1  19
TORSDOF 12
