REMARK  Name = 
REMARK  4 active torsions:
REMARK  status: ('A' for Active; 'I' for Inactive)
REMARK    1  A    between atoms: C_1  and  C_2
REMARK    2  A    between atoms: C_2  and  C_3
REMARK    3  A    between atoms: C_2  and  C_4
REMARK    4  A    between atoms: C_6  and  C_7
REMARK                            x       y       z     vdW  Elec       q    Type
REMARK                         _______ _______ _______ _____ _____    ______ ____
ROOT
ATOM      1  C   UNL     1       2.987  -0.134  -1.313  0.00  0.00    -0.001 C 
ATOM      2  C   UNL     1       2.178   0.523  -2.401  0.00  0.00    +0.012 C 
ATOM      3  C   UNL     1       2.282  -0.976  -2.365  0.00  0.00    +0.019 C 
ENDROOT
BRANCH   3   4
ATOM      4  C   UNL     1       1.130  -1.834  -2.037  0.00  0.00    -0.063 C 
ATOM      5  C   UNL     1       1.260  -3.015  -1.411  0.00  0.00    +0.019 C 
ATOM      6  C   UNL     1       0.071  -3.884  -1.314  0.00  0.00    +0.105 C 
ATOM      7  N   UNL     1      -1.157  -3.537  -1.487  0.00  0.00    -0.291 NA
ATOM      8  C   UNL     1      -1.374  -2.108  -1.740  0.00  0.00    +0.146 C 
ATOM      9  C   UNL     1      -0.247  -1.443  -2.537  0.00  0.00    +0.054 C 
ENDBRANCH   3   4
BRANCH   1  11
ATOM     10  C   UNL     1       3.441  -0.802   1.055  0.00  0.00    +0.007 C 
ATOM     11  C   UNL     1       2.534   0.007   0.124  0.00  0.00    -0.013 C 
ATOM     12  C   UNL     1       2.552   1.478   0.549  0.00  0.00    +0.007 C 
ENDBRANCH   1  11
TORSDOF 2
