REMARK  Name = 
REMARK  2 active torsions:
REMARK  status: ('A' for Active; 'I' for Inactive)
REMARK    1  A    between atoms: C_1  and  C_2
REMARK    2  A    between atoms: C_2  and  N_3
REMARK                            x       y       z     vdW  Elec       q    Type
REMARK                         _______ _______ _______ _____ _____    ______ ____
ROOT
ATOM      1  N   UNL     1       3.027   1.098  -0.895  0.00  0.00    -0.206 NA
ATOM      2  C   UNL     1       4.196   1.180  -0.969  0.00  0.00    +0.235 C 
ATOM      3  O   UNL     1       5.366   1.257  -1.039  0.00  0.00    -0.210 OA
ENDROOT
BRANCH   1   5
ATOM      4  C   UNL     1       1.036   0.082   0.057  0.00  0.00    +0.030 C 
ATOM      5  C   UNL     1       2.557   0.083   0.055  0.00  0.00    +0.152 C 
ENDBRANCH   1   5
TORSDOF 1
