REMARK  Name = 
REMARK  8 active torsions:
REMARK  status: ('A' for Active; 'I' for Inactive)
REMARK    1  A    between atoms: C_5  and  C_6
REMARK    2  A    between atoms: N_8  and  C_9
REMARK    3  A    between atoms: C_9  and  C_10
REMARK    4  A    between atoms: N_16  and  C_17
REMARK    5  A    between atoms: C_17  and  C_18
REMARK    6  A    between atoms: C_18  and  C_19
REMARK    7  A    between atoms: C_20  and  C_21
REMARK    8  A    between atoms: C_22  and  C_23
REMARK                            x       y       z     vdW  Elec       q    Type
REMARK                         _______ _______ _______ _____ _____    ______ ____
ROOT
ATOM      1  C   UNL     1      -4.477  -3.062  -0.956  0.00  0.00    -0.007 C 
ATOM      2  C   UNL     1      -5.333  -3.089   0.102  0.00  0.00    +0.082 C 
ATOM      3  C   UNL     1      -4.591  -2.019  -2.043  0.00  0.00    +0.002 C 
ATOM      4  C   UNL     1      -5.785  -1.782  -2.687  0.00  0.00    +0.121 C 
ATOM      5  N   UNL     1      -6.918  -1.573  -1.893  0.00  0.00    -0.243 NA
ATOM      6  C   UNL     1      -6.484  -1.224  -0.692  0.00  0.00    +0.106 C 
ATOM      7  N   UNL     1      -6.480  -2.264   0.276  0.00  0.00    -0.294 N 
ATOM      8  C   UNL     1      -5.304  -0.139  -0.633  0.00  0.00    +0.107 C 
ATOM      9  C   UNL     1      -4.159  -0.703  -1.491  0.00  0.00    -0.038 C 
ATOM     10  C   UNL     1      -2.908  -0.250  -1.646  0.00  0.00    +0.013 C 
ENDROOT
BRANCH   1  11
ATOM     11  C   UNL     1      -3.208  -3.867  -0.915  0.00  0.00    +0.141 C 
BRANCH  11  19
ATOM     12  C   UNL     1      -1.815  -5.144  -2.428  0.00  0.00    +0.070 C 
ATOM     13  C   UNL     1      -1.071  -6.207  -2.111  0.00  0.00    +0.015 C 
ATOM     14  C   UNL     1      -1.416  -7.234  -1.161  0.00  0.00    -0.003 C 
ATOM     15  C   UNL     1      -2.628  -7.580  -0.708  0.00  0.00    -0.022 C 
ATOM     16  C   UNL     1      -3.996  -7.028  -1.045  0.00  0.00    +0.026 C 
ATOM     17  C   UNL     1      -4.873  -8.202  -1.510  0.00  0.00    +0.013 C 
ATOM     18  C   UNL     1      -4.125  -5.892  -2.085  0.00  0.00    +0.112 C 
ATOM     19  N   UNL     1      -3.099  -4.837  -2.010  0.00  0.00    -0.331 N 
ENDBRANCH  11  19
ENDBRANCH   1  11
BRANCH   7  20
ATOM     20  C   UNL     1      -7.739  -3.072   0.401  0.00  0.00    +0.115 C 
BRANCH  20  21
ATOM     21  C   UNL     1      -8.602  -2.755   1.628  0.00  0.00    +0.046 C 
BRANCH  21  22
ATOM     22  C   UNL     1      -9.468  -1.524   1.657  0.00  0.00    -0.025 C 
ATOM     23  C   UNL     1      -9.558  -0.576   0.715  0.00  0.00    -0.005 C 
BRANCH  23  24
ATOM     24  C   UNL     1     -10.421   0.574   0.826  0.00  0.00    -0.005 C 
ATOM     25  C   UNL     1     -10.412   1.551  -0.092  0.00  0.00    -0.030 C 
ATOM     26  C   UNL     1     -11.285   2.760  -0.049  0.00  0.00    +0.035 C 
ENDBRANCH  23  24
ENDBRANCH  21  22
ENDBRANCH  20  21
ENDBRANCH   7  20
TORSDOF 6
