REMARK  Name = 
REMARK  1 active torsions:
REMARK  status: ('A' for Active; 'I' for Inactive)
REMARK    1  A    between atoms: C_2  and  C_3
REMARK                            x       y       z     vdW  Elec       q    Type
REMARK                         _______ _______ _______ _____ _____    ______ ____
ROOT
ATOM      1  C   UNL     1       3.102  -0.407  -1.218  0.00  0.00    +0.111 C 
ATOM      2  C   UNL     1       2.312   0.130  -2.399  0.00  0.00    +0.167 C 
ATOM      3  O   UNL     1       2.155   1.308  -2.691  0.00  0.00    -0.292 OA
ATOM      4  C   UNL     1       1.692  -0.952  -3.186  0.00  0.00    +0.047 C 
ATOM      5  C   UNL     1       2.138  -2.092  -2.653  0.00  0.00    +0.007 C 
ATOM      6  C   UNL     1       3.047  -1.885  -1.549  0.00  0.00    -0.040 C 
ATOM      7  C   UNL     1       3.761  -2.856  -0.967  0.00  0.00    +0.013 C 
ENDROOT
BRANCH   1   9
ATOM      8  C   UNL     1       2.910   0.652   1.065  0.00  0.00    +0.005 C 
ATOM      9  C   UNL     1       2.387  -0.071   0.066  0.00  0.00    -0.019 C 
ENDBRANCH   1   9
TORSDOF 1
