REMARK  Name = 
REMARK  0 active torsions:
REMARK  status: ('A' for Active; 'I' for Inactive)
REMARK                            x       y       z     vdW  Elec       q    Type
REMARK                         _______ _______ _______ _____ _____    ______ ____
ROOT
ATOM      1  C   UNL     1      -1.314   0.786   0.699  0.00  0.00    +0.119 C 
ATOM      2  C   UNL     1      -0.913  -0.507   0.081  0.00  0.00    +0.047 C 
ATOM      3  C   UNL     1       0.511  -0.703  -0.501  0.00  0.00    +0.008 C 
ATOM      4  C   UNL     1       1.708  -0.034   0.169  0.00  0.00    +0.028 C 
ATOM      5  C   UNL     1       1.691   1.450   0.093  0.00  0.00    -0.012 C 
ATOM      6  C   UNL     1       0.756   2.116   0.759  0.00  0.00    +0.070 C 
ATOM      7  N   UNL     1      -0.321   1.527   1.443  0.00  0.00    -0.294 N 
ATOM      8  C   UNL     1      -1.479   2.290   1.778  0.00  0.00    +0.180 C 
ATOM      9  N   UNL     1      -1.797   2.174   0.274  0.00  0.00    -0.240 NA
ATOM     10  C   UNL     1      -3.229   2.509   0.279  0.00  0.00    +0.193 C 
ATOM     11  N   UNL     1      -4.153   1.590   0.914  0.00  0.00    -0.337 N 
ATOM     12  C   UNL     1      -3.570   0.759   1.831  0.00  0.00    +0.074 C 
ATOM     13  C   UNL     1      -2.227   0.916   1.939  0.00  0.00    +0.017 C 
ATOM     14  H   UNL     1      -4.817   1.158   0.291  0.00  0.00    +0.147 HD
ENDROOT
TORSDOF 0
