REMARK  Name = 
REMARK  1 active torsions:
REMARK  status: ('A' for Active; 'I' for Inactive)
REMARK    1  A    between atoms: C_1  and  C_2
REMARK                            x       y       z     vdW  Elec       q    Type
REMARK                         _______ _______ _______ _____ _____    ______ ____
ROOT
ATOM      1  C   UNL     1       0.880   0.048  -0.035  0.00  0.00    +0.045 C 
ATOM      2  C   UNL     1       2.383   0.024  -0.037  0.00  0.00    -0.030 C 
ATOM      3  C   UNL     1       3.093   1.176  -0.040  0.00  0.00    +0.006 C 
ATOM      4  C   UNL     1       4.545   1.168  -0.048  0.00  0.00    +0.015 C 
ATOM      5  C   UNL     1       5.176  -0.014  -0.056  0.00  0.00    +0.072 C 
ATOM      6  N   UNL     1       4.485  -1.200  -0.054  0.00  0.00    -0.321 N 
ATOM      7  C   UNL     1       3.100  -1.275  -0.040  0.00  0.00    +0.027 C 
ATOM      8  C   UNL     1       2.464  -2.457  -0.030  0.00  0.00    +0.033 C 
ATOM      9  H   UNL     1       5.010  -2.065  -0.055  0.00  0.00    +0.152 HD
ENDROOT
TORSDOF 0
