REMARK  Name = 
REMARK  21 active torsions:
REMARK  status: ('A' for Active; 'I' for Inactive)
REMARK    1  A    between atoms: N_6  and  C_7
REMARK    2  A    between atoms: C_8  and  C_9
REMARK    3  A    between atoms: C_9  and  C_13
REMARK    4  A    between atoms: N_10  and  C_11
REMARK    5  A    between atoms: C_11  and  C_12
REMARK    6  A    between atoms: C_13  and  C_14
REMARK    7  A    between atoms: C_15  and  C_16
REMARK    8  A    between atoms: C_16  and  C_17
REMARK    9  A    between atoms: C_17  and  N_18
REMARK   10  A    between atoms: C_19  and  C_20
REMARK   11  A    between atoms: C_20  and  N_21
REMARK   12  A    between atoms: N_21  and  C_22
REMARK   13  A    between atoms: C_23  and  C_24
REMARK   14  A    between atoms: C_24  and  C_25
REMARK   15  A    between atoms: C_25  and  C_26
REMARK   16  A    between atoms: C_26  and  C_27
REMARK   17  A    between atoms: C_27  and  C_28
REMARK   18  A    between atoms: C_28  and  C_29
REMARK   19  A    between atoms: C_29  and  C_30
REMARK   20  A    between atoms: C_30  and  C_31
REMARK   21  A    between atoms: C_32  and  C_33
REMARK                            x       y       z     vdW  Elec       q    Type
REMARK                         _______ _______ _______ _____ _____    ______ ____
ROOT
ATOM      1  N   UNL     1      10.133  -4.773   5.439  0.00  0.00    -0.294 NA
ATOM      2  C   UNL     1      10.456  -5.720   6.240  0.00  0.00    +0.096 C 
ENDROOT
BRANCH   1   3
ATOM      3  C   UNL     1       8.916  -5.003   4.641  0.00  0.00    +0.145 C 
BRANCH   3   4
ATOM      4  C   UNL     1       8.263  -3.651   4.345  0.00  0.00    +0.050 C 
BRANCH   4   6
ATOM      5  C   UNL     1       5.817  -3.375   3.972  0.00  0.00    -0.025 C 
ATOM      6  C   UNL     1       7.010  -3.803   3.526  0.00  0.00    -0.029 C 
BRANCH   5   7
ATOM      7  C   UNL     1       4.527  -3.501   3.208  0.00  0.00    +0.081 C 
BRANCH   7   8
ATOM      8  C   UNL     1       4.250  -2.279   2.333  0.00  0.00    +0.041 C 
ATOM      9  N   UNL     1       3.588  -1.296   2.874  0.00  0.00    -0.288 NA
BRANCH   9  10
ATOM     10  C   UNL     1       3.312  -0.120   2.060  0.00  0.00    +0.138 C 
ATOM     11  C   UNL     1       2.514   0.910   2.821  0.00  0.00    +0.029 C 
ENDBRANCH   9  10
BRANCH   8  13
ATOM     12  C   UNL     1       4.995  -3.428   0.225  0.00  0.00    +0.072 C 
ATOM     13  C   UNL     1       4.806  -2.305   0.926  0.00  0.00    +0.038 C 
BRANCH  12  19
ATOM     14  C   UNL     1       5.626  -4.973  -1.579  0.00  0.00    +0.109 C 
ATOM     15  C   UNL     1       4.839  -5.088  -2.878  0.00  0.00    +0.046 C 
ATOM     16  C   UNL     1       5.182  -3.954  -3.805  0.00  0.00    -0.028 C 
ATOM     17  C   UNL     1       5.702  -2.822  -3.357  0.00  0.00    -0.012 C 
ATOM     18  C   UNL     1       5.974  -2.521  -1.907  0.00  0.00    +0.131 C 
ATOM     19  N   UNL     1       5.490  -3.609  -1.054  0.00  0.00    -0.332 N 
ENDBRANCH  12  19
ENDBRANCH   8  13
ENDBRANCH   7   8
ENDBRANCH   5   7
ENDBRANCH   4   6
ENDBRANCH   3   4
ENDBRANCH   1   3
BRANCH   2  20
ATOM     20  C   UNL     1      11.671  -5.605   7.152  0.00  0.00    +0.148 C 
BRANCH  20  21
ATOM     21  N   UNL     1      12.635  -6.674   6.918  0.00  0.00    -0.345 N 
ATOM     22  H   UNL     1      13.071  -6.733   5.999  0.00  0.00    +0.146 HD
BRANCH  21  23
ATOM     23  C   UNL     1      13.075  -7.562   7.865  0.00  0.00    +0.063 C 
ATOM     24  C   UNL     1      13.978  -8.533   7.684  0.00  0.00    -0.012 C 
BRANCH  24  25
ATOM     25  C   UNL     1      14.394  -9.483   8.769  0.00  0.00    +0.028 C 
BRANCH  25  26
ATOM     26  C   UNL     1      15.889  -9.376   9.043  0.00  0.00    +0.004 C 
BRANCH  26  27
ATOM     27  C   UNL     1      16.310 -10.345  10.140  0.00  0.00    +0.000 C 
BRANCH  27  28
ATOM     28  C   UNL     1      17.803 -10.226  10.403  0.00  0.00    +0.000 C 
BRANCH  28  29
ATOM     29  C   UNL     1      18.226 -11.192  11.498  0.00  0.00    +0.000 C 
BRANCH  29  30
ATOM     30  C   UNL     1      19.721 -11.071  11.757  0.00  0.00    +0.004 C 
BRANCH  30  31
ATOM     31  C   UNL     1      20.147 -12.037  12.854  0.00  0.00    +0.028 C 
BRANCH  31  32
ATOM     32  C   UNL     1      21.614 -11.933  13.122  0.00  0.00    -0.018 C 
ATOM     33  C   UNL     1      22.432 -12.978  12.965  0.00  0.00    +0.055 C 
BRANCH  33  34
ATOM     34  C   UNL     1      23.921 -12.846  13.243  0.00  0.00    -0.078 C 
ATOM     35  C   UNL     1      25.197 -12.732  13.481  0.00  0.00    +0.009 C 
ENDBRANCH  33  34
ENDBRANCH  31  32
ENDBRANCH  30  31
ENDBRANCH  29  30
ENDBRANCH  28  29
ENDBRANCH  27  28
ENDBRANCH  26  27
ENDBRANCH  25  26
ENDBRANCH  24  25
ENDBRANCH  21  23
ENDBRANCH  20  21
ENDBRANCH   2  20
TORSDOF 20
