REMARK  Name = 
REMARK  15 active torsions:
REMARK  status: ('A' for Active; 'I' for Inactive)
REMARK    1  A    between atoms: C_2  and  C_3
REMARK    2  A    between atoms: C_2  and  C_9
REMARK    3  A    between atoms: C_3  and  S_4
REMARK    4  A    between atoms: C_6  and  C_7
REMARK    5  A    between atoms: C_9  and  C_10
REMARK    6  A    between atoms: C_11  and  C_12
REMARK    7  A    between atoms: C_12  and  C_13
REMARK    8  A    between atoms: C_13  and  C_14
REMARK    9  A    between atoms: C_15  and  C_16
REMARK   10  A    between atoms: C_17  and  C_18
REMARK   11  A    between atoms: C_19  and  C_20
REMARK   12  A    between atoms: C_20  and  C_22
REMARK   13  A    between atoms: C_22  and  C_23
REMARK   14  A    between atoms: C_23  and  N_24
REMARK   15  A    between atoms: N_24  and  C_25
REMARK                            x       y       z     vdW  Elec       q    Type
REMARK                         _______ _______ _______ _____ _____    ______ ____
ROOT
ATOM      1  C   UNL     1       7.737   1.902  -2.554  0.00  0.00    +0.031 C 
ENDROOT
BRANCH   1   2
ATOM      2  C   UNL     1       9.226   1.760  -2.360  0.00  0.00    -0.027 C 
ATOM      3  C   UNL     1      10.025   1.228  -3.291  0.00  0.00    -0.004 C 
BRANCH   3   4
ATOM      4  C   UNL     1      11.453   1.087  -3.116  0.00  0.00    -0.000 C 
ATOM      5  C   UNL     1      12.273   0.553  -4.036  0.00  0.00    -0.000 C 
BRANCH   5   6
ATOM      6  C   UNL     1      13.698   0.440  -3.790  0.00  0.00    +0.000 C 
ATOM      7  C   UNL     1      14.602  -0.083  -4.640  0.00  0.00    +0.003 C 
BRANCH   7   8
ATOM      8  C   UNL     1      16.037  -0.164  -4.363  0.00  0.00    -0.053 C 
ATOM      9  C   UNL     1      16.517  -0.879  -3.322  0.00  0.00    +0.012 C 
BRANCH   8  10
ATOM     10  C   UNL     1      16.966   0.564  -5.339  0.00  0.00    +0.049 C 
BRANCH  10  11
ATOM     11  C   UNL     1      16.717   2.087  -5.397  0.00  0.00    +0.085 C 
BRANCH  11  12
ATOM     12  N   UNL     1      17.598   2.818  -6.326  0.00  0.00    -0.319 NA
ATOM     13  C   UNL     1      17.257   4.242  -6.287  0.00  0.00    +0.101 C 
ATOM     14  H   UNL     1      17.455   2.472  -7.277  0.00  0.00    +0.122 HD
ENDBRANCH  11  12
ENDBRANCH  10  11
ENDBRANCH   8  10
ENDBRANCH   7   8
ENDBRANCH   5   6
ENDBRANCH   3   4
ENDBRANCH   1   2
BRANCH   1  15
ATOM     15  C   UNL     1       6.943   1.138  -1.493  0.00  0.00    +0.031 C 
BRANCH  15  17
ATOM     16  C   UNL     1       4.672   0.190  -1.895  0.00  0.00    -0.027 C 
ATOM     17  C   UNL     1       5.454   1.264  -1.679  0.00  0.00    -0.030 C 
BRANCH  16  18
ATOM     18  C   UNL     1       3.182   0.275  -2.063  0.00  0.00    +0.057 C 
BRANCH  18  20
ATOM     19  C   UNL     1       1.717  -1.267  -3.274  0.00  0.00    +0.009 C 
ATOM     20  C   UNL     1       2.631  -0.279  -3.368  0.00  0.00    -0.063 C 
BRANCH  20  21
ATOM     21  C   UNL     1       3.039   0.370  -4.688  0.00  0.00    +0.098 C 
BRANCH  21  22
ATOM     22  S   UNL     1       4.501  -0.440  -5.426  0.00  0.00    -0.152 S 
ATOM     23  C   UNL     1       4.645   0.455  -6.738  0.00  0.00    -0.093 C 
ATOM     24  C   UNL     1       4.893   1.104  -7.850  0.00  0.00    +0.057 C 
ATOM     25  H   UNL     1       3.914  -1.493  -5.949  0.00  0.00    +0.104 HD
BRANCH  24  26
ATOM     26  C   UNL     1       5.498   2.412  -7.845  0.00  0.00    +0.001 C 
ATOM     27  C   UNL     1       5.772   3.100  -8.961  0.00  0.00    +0.009 C 
ENDBRANCH  24  26
ENDBRANCH  21  22
ENDBRANCH  20  21
ENDBRANCH  18  20
ENDBRANCH  16  18
ENDBRANCH  15  17
ENDBRANCH   1  15
TORSDOF 14
