REMARK  Name = 
REMARK  8 active torsions:
REMARK  status: ('A' for Active; 'I' for Inactive)
REMARK    1  A    between atoms: C_2  and  C_3
REMARK    2  A    between atoms: C_4  and  C_5
REMARK    3  A    between atoms: C_4  and  C_9
REMARK    4  A    between atoms: C_6  and  C_7
REMARK    5  A    between atoms: C_9  and  N_11
REMARK    6  A    between atoms: N_11  and  C_12
REMARK    7  A    between atoms: C_12  and  C_13
REMARK    8  A    between atoms: C_13  and  C_14
REMARK                            x       y       z     vdW  Elec       q    Type
REMARK                         _______ _______ _______ _____ _____    ______ ____
ROOT
ATOM      1  C   UNL     1       3.052  -1.346   0.066  0.00  0.00    +0.009 C 
ATOM      2  C   UNL     1       4.405  -1.336   0.010  0.00  0.00    -0.005 C 
ENDROOT
BRANCH   1   4
ATOM      3  C   UNL     1       0.802  -0.398  -0.010  0.00  0.00    +0.008 C 
ATOM      4  C   UNL     1       2.132  -0.228  -0.036  0.00  0.00    -0.007 C 
ENDBRANCH   1   4
BRANCH   2   5
ATOM      5  C   UNL     1       5.125  -0.056  -0.112  0.00  0.00    +0.010 C 
ATOM      6  C   UNL     1       6.039   0.195  -1.060  0.00  0.00    +0.000 C 
BRANCH   6   7
ATOM      7  C   UNL     1       6.806   1.415  -1.142  0.00  0.00    -0.008 C 
ATOM      8  C   UNL     1       7.695   1.645  -2.118  0.00  0.00    +0.008 C 
ENDBRANCH   6   7
ENDBRANCH   2   5
BRANCH   2   9
ATOM      9  C   UNL     1       5.125  -2.642   0.132  0.00  0.00    +0.027 C 
ATOM     10  C   UNL     1       6.299  -2.688   0.787  0.00  0.00    +0.033 C 
BRANCH   9  11
ATOM     11  N   UNL     1       4.568  -3.782  -0.441  0.00  0.00    -0.344 N 
ATOM     12  H   UNL     1       3.740  -3.608  -1.004  0.00  0.00    +0.146 HD
BRANCH  11  13
ATOM     13  C   UNL     1       4.701  -5.134   0.097  0.00  0.00    +0.105 C 
BRANCH  13  14
ATOM     14  C   UNL     1       3.861  -6.141  -0.697  0.00  0.00    +0.045 C 
BRANCH  14  15
ATOM     15  C   UNL     1       4.019  -7.540  -0.160  0.00  0.00    -0.033 C 
ATOM     16  C   UNL     1       4.516  -8.566  -0.863  0.00  0.00    +0.004 C 
ENDBRANCH  14  15
ENDBRANCH  13  14
ENDBRANCH  11  13
ENDBRANCH   9  11
ENDBRANCH   2   9
TORSDOF 8
