REMARK  Name = 
REMARK  1 active torsions:
REMARK  status: ('A' for Active; 'I' for Inactive)
REMARK    1  A    between atoms: C_11  and  C_12
REMARK                            x       y       z     vdW  Elec       q    Type
REMARK                         _______ _______ _______ _____ _____    ______ ____
ROOT
ATOM      1  C   UNL     1       4.113   0.578  -1.095  0.00  0.00    +0.139 C 
ATOM      2  N   UNL     1       5.576   0.546  -1.205  0.00  0.00    -0.345 N 
ATOM      3  C   UNL     1       6.550   1.290  -0.567  0.00  0.00    +0.067 C 
ATOM      4  C   UNL     1       6.492   2.465   0.080  0.00  0.00    +0.015 C 
ATOM      5  C   UNL     1       5.274   3.224   0.106  0.00  0.00    +0.008 C 
ATOM      6  C   UNL     1       4.690   3.655   1.229  0.00  0.00    +0.092 C 
ATOM      7  C   UNL     1       3.214   3.723   1.136  0.00  0.00    +0.337 C 
ATOM      8  O   UNL     1       2.604   4.764   1.305  0.00  0.00    -0.245 OA
ATOM      9  O   UNL     1       2.635   2.530   0.749  0.00  0.00    -0.430 OA
ATOM     10  C   UNL     1       3.108   1.244   1.142  0.00  0.00    +0.204 C 
ATOM     11  C   UNL     1       3.659   0.319   0.331  0.00  0.00    +0.004 C 
ATOM     12  H   UNL     1       5.932  -0.123  -1.882  0.00  0.00    +0.146 HD
ENDROOT
BRANCH  11  13
ATOM     13  C   UNL     1       3.820  -1.075   0.757  0.00  0.00    +0.000 C 
ATOM     14  C   UNL     1       2.941  -1.765   1.496  0.00  0.00    +0.009 C 
ENDBRANCH  11  13
TORSDOF 1
