REMARK  Name = 
REMARK  14 active torsions:
REMARK  status: ('A' for Active; 'I' for Inactive)
REMARK    1  A    between atoms: C_2  and  C_3
REMARK    2  A    between atoms: C_4  and  C_5
REMARK    3  A    between atoms: C_5  and  C_7
REMARK    4  A    between atoms: C_7  and  C_8
REMARK    5  A    between atoms: C_7  and  N_10
REMARK    6  A    between atoms: C_8  and  C_9
REMARK    7  A    between atoms: N_10  and  C_11
REMARK    8  A    between atoms: C_16  and  N_17
REMARK    9  A    between atoms: N_17  and  N_18
REMARK   10  A    between atoms: N_18  and  C_19
REMARK   11  A    between atoms: C_23  and  C_24
REMARK   12  A    between atoms: C_27  and  C_28
REMARK   13  A    between atoms: C_28  and  N_29
REMARK   14  A    between atoms: N_29  and  C_30
REMARK                            x       y       z     vdW  Elec       q    Type
REMARK                         _______ _______ _______ _____ _____    ______ ____
ROOT
ATOM      1  C   UNL     1       8.598  -4.011  -3.626  0.00  0.00    +0.171 C 
ATOM      2  N   UNL     1       8.848  -4.655  -5.011  0.00  0.00    -0.331 N 
ATOM      3  C   UNL     1       8.531  -6.024  -5.240  0.00  0.00    +0.069 C 
ATOM      4  C   UNL     1       7.305  -6.439  -5.578  0.00  0.00    +0.018 C 
ATOM      5  C   UNL     1       6.463  -7.296  -4.732  0.00  0.00    +0.042 C 
ATOM      6  C   UNL     1       6.015  -6.786  -3.547  0.00  0.00    +0.104 C 
ATOM      7  N   UNL     1       6.798  -6.092  -2.614  0.00  0.00    -0.308 N 
ATOM      8  C   UNL     1       8.174  -6.096  -2.345  0.00  0.00    +0.080 C 
ATOM      9  C   UNL     1       9.045  -5.090  -2.645  0.00  0.00    +0.001 C 
ATOM     10  H   UNL     1       9.861  -4.592  -5.129  0.00  0.00    +0.147 HD
ATOM     11  H   UNL     1       6.509  -5.110  -2.746  0.00  0.00    +0.153 HD
ENDROOT
BRANCH   9  12
ATOM     12  C   UNL     1      10.462  -5.086  -2.235  0.00  0.00    +0.016 C 
ATOM     13  C   UNL     1      11.418  -4.249  -2.518  0.00  0.00    -0.020 C 
ATOM     14  C   UNL     1      12.763  -4.058  -2.235  0.00  0.00    +0.013 C 
ATOM     15  C   UNL     1      12.163  -3.194  -3.031  0.00  0.00    -0.026 C 
BRANCH  15  16
ATOM     16  C   UNL     1      12.515  -2.036  -3.852  0.00  0.00    +0.116 C 
BRANCH  16  17
ATOM     17  N   UNL     1      11.743  -0.834  -3.526  0.00  0.00    -0.315 NA
ATOM     18  C   UNL     1      12.198   0.316  -4.313  0.00  0.00    +0.101 C 
ATOM     19  H   UNL     1      11.892  -0.618  -2.541  0.00  0.00    +0.122 HD
ENDBRANCH  16  17
ENDBRANCH  15  16
ENDBRANCH   9  12
BRANCH   1  20
ATOM     20  N   UNL     1       7.249  -3.476  -3.317  0.00  0.00    -0.288 NA
ATOM     21  H   UNL     1       7.027  -2.934  -4.153  0.00  0.00    +0.125 HD
BRANCH  20  22
ATOM     22  C   UNL     1       7.001  -2.552  -2.150  0.00  0.00    +0.085 C 
BRANCH  22  23
ATOM     23  C   UNL     1       5.525  -2.020  -2.231  0.00  0.00    -0.038 C 
ATOM     24  C   UNL     1       4.606  -2.649  -2.999  0.00  0.00    +0.014 C 
BRANCH  23  26
ATOM     25  C   UNL     1       5.638  -0.045  -0.607  0.00  0.00    -0.000 C 
ATOM     26  C   UNL     1       5.019  -0.863  -1.472  0.00  0.00    +0.004 C 
BRANCH  25  28
ATOM     27  C   UNL     1       5.527   1.823   0.990  0.00  0.00    +0.008 C 
ATOM     28  C   UNL     1       4.945   1.036   0.077  0.00  0.00    -0.008 C 
ENDBRANCH  25  28
ENDBRANCH  23  26
ENDBRANCH  22  23
BRANCH  22  29
ATOM     29  C   UNL     1       7.258  -3.076  -0.696  0.00  0.00    +0.020 C 
ATOM     30  C   UNL     1       6.277  -4.082  -0.087  0.00  0.00    +0.006 C 
ENDBRANCH  22  29
ENDBRANCH  20  22
ENDBRANCH   1  20
BRANCH   6  31
ATOM     31  N   UNL     1       4.636  -6.456  -3.538  0.00  0.00    -0.254 N 
ATOM     32  H   UNL     1       4.347  -6.220  -4.489  0.00  0.00    +0.171 HD
BRANCH  31  33
ATOM     33  N   UNL     1       3.640  -7.138  -2.890  0.00  0.00    -0.273 N 
ATOM     34  H   UNL     1       3.907  -7.474  -1.963  0.00  0.00    +0.169 HD
BRANCH  33  35
ATOM     35  C   UNL     1       2.290  -6.868  -3.002  0.00  0.00    +0.080 C 
ATOM     36  C   UNL     1       1.627  -6.197  -3.949  0.00  0.00    +0.026 C 
ENDBRANCH  33  35
ENDBRANCH  31  33
ENDBRANCH   6  31
TORSDOF 12
