REMARK  Name = 
REMARK  0 active torsions:
REMARK  status: ('A' for Active; 'I' for Inactive)
REMARK                            x       y       z     vdW  Elec       q    Type
REMARK                         _______ _______ _______ _____ _____    ______ ____
ROOT
ATOM      1  C   UNL     1       1.159   0.785  -0.333  0.00  0.00    +0.008 C 
ATOM      2  C   UNL     1       2.322   1.386  -0.632  0.00  0.00    +0.008 C 
ATOM      3  C   UNL     1       2.352   0.138  -0.010  0.00  0.00    -0.032 C 
ATOM      4  C   UNL     1       3.008  -0.880   0.498  0.00  0.00    +0.017 C 
ENDROOT
TORSDOF 0
