REMARK  Name = 
REMARK  9 active torsions:
REMARK  status: ('A' for Active; 'I' for Inactive)
REMARK    1  A    between atoms: C_1  and  C_2
REMARK    2  A    between atoms: C_3  and  C_4
REMARK    3  A    between atoms: C_5  and  C_6
REMARK    4  A    between atoms: C_5  and  C_10
REMARK    5  A    between atoms: C_6  and  C_7
REMARK    6  A    between atoms: N_8  and  C_9
REMARK    7  A    between atoms: C_10  and  N_11
REMARK    8  A    between atoms: N_13  and  C_14
REMARK    9  A    between atoms: N_16  and  N_17
REMARK                            x       y       z     vdW  Elec       q    Type
REMARK                         _______ _______ _______ _____ _____    ______ ____
ROOT
ATOM      1  C   UNL     1       6.794   1.470  -2.138  0.00  0.00    +0.133 C 
ENDROOT
BRANCH   1   2
ATOM      2  N   UNL     1       7.287   0.775  -3.301  0.00  0.00    -0.331 N 
ATOM      3  C   UNL     1       8.094   1.252  -4.284  0.00  0.00    +0.185 C 
ATOM      4  N   UNL     1       8.448   0.502  -5.268  0.00  0.00    -0.204 NA
ATOM      5  H   UNL     1       7.034  -0.206  -3.383  0.00  0.00    +0.147 HD
BRANCH   4   6
ATOM      6  C   UNL     1       9.273   1.056  -6.191  0.00  0.00    +0.270 C 
ATOM      7  N   UNL     1       9.460   0.306  -7.237  0.00  0.00    -0.122 NA
ATOM      8  N   UNL     1      10.524   0.897  -6.757  0.00  0.00    -0.118 N 
BRANCH   8   9
ATOM      9  N   UNL     1      10.976   1.859  -7.660  0.00  0.00    -0.230 NA
ATOM     10  H   UNL     1      10.462   1.686  -8.528  0.00  0.00    +0.143 HD
ATOM     11  H   UNL     1      11.935   1.603  -7.900  0.00  0.00    +0.143 HD
ENDBRANCH   8   9
ENDBRANCH   4   6
ENDBRANCH   1   2
BRANCH   1  13
ATOM     12  C   UNL     1       4.664   0.644  -1.118  0.00  0.00    +0.001 C 
ATOM     13  C   UNL     1       5.283   1.332  -2.108  0.00  0.00    -0.047 C 
BRANCH  12  16
ATOM     14  C   UNL     1       1.166  -0.283   0.186  0.00  0.00    +0.035 C 
ATOM     15  C   UNL     1       2.653  -0.181   0.048  0.00  0.00    -0.030 C 
ATOM     16  C   UNL     1       3.232   0.481  -0.960  0.00  0.00    -0.004 C 
ENDBRANCH  12  16
BRANCH  13  17
ATOM     17  C   UNL     1       4.566   1.995  -3.261  0.00  0.00    +0.079 C 
BRANCH  17  18
ATOM     18  C   UNL     1       4.237   3.467  -3.115  0.00  0.00    +0.081 C 
ATOM     19  N   UNL     1       4.600   4.202  -2.118  0.00  0.00    -0.299 NA
ATOM     20  C   UNL     1       4.151   5.591  -2.248  0.00  0.00    +0.169 C 
ENDBRANCH  17  18
ENDBRANCH  13  17
ENDBRANCH   1  13
TORSDOF 7
