REMARK  Name = 
REMARK  5 active torsions:
REMARK  status: ('A' for Active; 'I' for Inactive)
REMARK    1  A    between atoms: C_2  and  C_3
REMARK    2  A    between atoms: C_3  and  C_4
REMARK    3  A    between atoms: C_5  and  C_6
REMARK    4  A    between atoms: C_7  and  C_8
REMARK    5  A    between atoms: C_8  and  C_9
REMARK                            x       y       z     vdW  Elec       q    Type
REMARK                         _______ _______ _______ _____ _____    ______ ____
ROOT
ATOM      1  C   UNL     1      11.138  -2.033  -5.051  0.00  0.00    -0.048 C 
ATOM      2  C   UNL     1      11.693  -1.015  -4.332  0.00  0.00    -0.021 C 
ATOM      3  C   UNL     1      12.906  -0.853  -3.401  0.00  0.00    +0.062 C 
ATOM      4  C   UNL     1      13.412  -2.116  -2.714  0.00  0.00    -0.043 C 
ATOM      5  C   UNL     1      12.795  -2.634  -1.638  0.00  0.00    +0.013 C 
ATOM      6  C   UNL     1      14.411  -2.844  -3.489  0.00  0.00    -0.012 C 
ATOM      7  C   UNL     1      15.729  -2.718  -3.382  0.00  0.00    +0.018 C 
ATOM      8  C   UNL     1      13.837  -3.481  -4.692  0.00  0.00    +0.112 C 
ATOM      9  N   UNL     1      12.634  -3.906  -4.586  0.00  0.00    -0.287 NA
ATOM     10  C   UNL     1      11.797  -3.288  -5.617  0.00  0.00    +0.172 C 
ENDROOT
BRANCH   1  11
ATOM     11  C   UNL     1       9.608  -2.112  -5.069  0.00  0.00    +0.059 C 
BRANCH  11  13
ATOM     12  C   UNL     1       9.266  -1.822  -7.604  0.00  0.00    -0.004 C 
ATOM     13  C   UNL     1       8.864  -2.156  -6.377  0.00  0.00    -0.022 C 
BRANCH  12  15
ATOM     14  C   UNL     1       8.702  -1.509  -9.988  0.00  0.00    -0.023 C 
ATOM     15  C   UNL     1       8.370  -1.882  -8.744  0.00  0.00    -0.004 C 
BRANCH  14  16
ATOM     16  C   UNL     1       7.728  -1.458 -11.138  0.00  0.00    +0.053 C 
BRANCH  16  18
ATOM     17  C   UNL     1       9.184  -2.978 -12.621  0.00  0.00    +0.004 C 
ATOM     18  C   UNL     1       8.097  -2.236 -12.378  0.00  0.00    -0.030 C 
ENDBRANCH  16  18
ENDBRANCH  14  16
ENDBRANCH  12  15
ENDBRANCH  11  13
ENDBRANCH   1  11
TORSDOF 5
