REMARK  Name = 
REMARK  24 active torsions:
REMARK  status: ('A' for Active; 'I' for Inactive)
REMARK    1  A    between atoms: C_8  and  N_9
REMARK    2  A    between atoms: N_9  and  C_10
REMARK    3  A    between atoms: C_11  and  C_12
REMARK    4  A    between atoms: C_11  and  C_23
REMARK    5  A    between atoms: C_12  and  C_13
REMARK    6  A    between atoms: C_14  and  C_15
REMARK    7  A    between atoms: C_16  and  C_17
REMARK    8  A    between atoms: C_18  and  C_19
REMARK    9  A    between atoms: C_18  and  O_20
REMARK   10  A    between atoms: O_20  and  C_21
REMARK   11  A    between atoms: C_21  and  C_22
REMARK   12  A    between atoms: C_23  and  C_24
REMARK   13  A    between atoms: C_23  and  S_25
REMARK   14  A    between atoms: S_25  and  C_26
REMARK   15  A    between atoms: C_26  and  C_27
REMARK   16  A    between atoms: C_27  and  C_29
REMARK   17  A    between atoms: C_29  and  C_30
REMARK   18  A    between atoms: C_30  and  C_31
REMARK   19  A    between atoms: C_31  and  C_32
REMARK   20  A    between atoms: C_32  and  N_33
REMARK   21  A    between atoms: N_33  and  C_34
REMARK   22  A    between atoms: C_34  and  C_35
REMARK   23  A    between atoms: C_35  and  N_36
REMARK   24  A    between atoms: N_36  and  N_37
REMARK                            x       y       z     vdW  Elec       q    Type
REMARK                         _______ _______ _______ _____ _____    ______ ____
ROOT
ATOM      1  C   UNL     1      -1.469  -1.379   2.557  0.00  0.00    +0.073 C 
ATOM      2  C   UNL     1      -2.796  -1.206   2.372  0.00  0.00    -0.039 C 
ENDROOT
BRANCH   1   3
ATOM      3  N   UNL     1      -0.366  -1.267   1.745  0.00  0.00    -0.316 N 
ATOM      4  H   UNL     1      -0.552  -1.013   0.776  0.00  0.00    +0.152 HD
BRANCH   3  12
ATOM      5  C   UNL     1       1.330  -2.343   3.335  0.00  0.00    +0.088 C 
ATOM      6  C   UNL     1       2.767  -2.683   3.755  0.00  0.00    -0.020 C 
ATOM      7  C   UNL     1       3.931  -2.940   3.122  0.00  0.00    -0.002 C 
ATOM      8  C   UNL     1       4.225  -2.769   1.712  0.00  0.00    +0.020 C 
ATOM      9  C   UNL     1       3.275  -2.991   0.786  0.00  0.00    +0.121 C 
ATOM     10  N   UNL     1       2.634  -1.889   0.239  0.00  0.00    -0.211 NA
ATOM     11  C   UNL     1       1.793  -1.617   1.008  0.00  0.00    +0.007 C 
ATOM     12  C   UNL     1       0.964  -1.604   2.028  0.00  0.00    +0.074 C 
ENDBRANCH   3  12
ENDBRANCH   1   3
BRANCH   2  13
ATOM     13  C   UNL     1      -3.734  -1.428   3.560  0.00  0.00    +0.071 C 
ATOM     14  C   UNL     1      -3.653  -2.881   4.057  0.00  0.00    +0.024 C 
BRANCH  13  15
ATOM     15  S   UNL     1      -3.314  -0.343   4.983  0.00  0.00    -0.149 S 
BRANCH  15  16
ATOM     16  C   UNL     1      -3.731   1.328   4.356  0.00  0.00    +0.099 C 
BRANCH  16  17
ATOM     17  C   UNL     1      -3.496   2.402   5.420  0.00  0.00    -0.067 C 
ATOM     18  C   UNL     1      -3.626   2.202   6.748  0.00  0.00    +0.008 C 
BRANCH  17  19
ATOM     19  C   UNL     1      -3.048   3.767   4.926  0.00  0.00    +0.031 C 
BRANCH  19  20
ATOM     20  C   UNL     1      -4.077   4.523   4.073  0.00  0.00    +0.006 C 
BRANCH  20  21
ATOM     21  C   UNL     1      -5.413   4.816   4.766  0.00  0.00    +0.015 C 
BRANCH  21  22
ATOM     22  C   UNL     1      -5.252   5.706   6.000  0.00  0.00    +0.081 C 
BRANCH  22  23
ATOM     23  N   UNL     1      -6.556   5.970   6.611  0.00  0.00    -0.315 NA
ATOM     24  H   UNL     1      -6.985   5.081   6.873  0.00  0.00    +0.122 HD
BRANCH  23  25
ATOM     25  C   UNL     1      -6.392   6.796   7.815  0.00  0.00    +0.097 C 
BRANCH  25  26
ATOM     26  C   UNL     1      -7.752   7.071   8.480  0.00  0.00    +0.113 C 
BRANCH  26  27
ATOM     27  N   UNL     1      -7.581   7.897   9.685  0.00  0.00    -0.258 NA
ATOM     28  H   UNL     1      -7.101   8.770   9.439  0.00  0.00    +0.140 HD
BRANCH  27  29
ATOM     29  N   UNL     1      -8.859   8.155  10.300  0.00  0.00    -0.270 NA
ATOM     30  H   UNL     1      -9.281   7.294  10.659  0.00  0.00    +0.137 HD
ATOM     31  H   UNL     1      -9.537   8.561   9.650  0.00  0.00    +0.137 HD
ENDBRANCH  27  29
ENDBRANCH  26  27
ENDBRANCH  25  26
ENDBRANCH  23  25
ENDBRANCH  22  23
ENDBRANCH  21  22
ENDBRANCH  20  21
ENDBRANCH  19  20
ENDBRANCH  17  19
ENDBRANCH  16  17
ENDBRANCH  15  16
ENDBRANCH  13  15
ENDBRANCH   2  13
BRANCH   2  32
ATOM     32  C   UNL     1      -3.503  -0.801   1.087  0.00  0.00    +0.060 C 
BRANCH  32  33
ATOM     33  C   UNL     1      -3.450  -1.823  -0.014  0.00  0.00    -0.022 C 
ATOM     34  C   UNL     1      -3.096  -1.532  -1.276  0.00  0.00    -0.004 C 
BRANCH  34  35
ATOM     35  C   UNL     1      -3.141  -2.496  -2.356  0.00  0.00    -0.000 C 
ATOM     36  C   UNL     1      -2.720  -2.198  -3.595  0.00  0.00    +0.003 C 
BRANCH  36  37
ATOM     37  C   UNL     1      -2.746  -3.134  -4.701  0.00  0.00    +0.041 C 
ATOM     38  C   UNL     1      -2.310  -2.903  -5.956  0.00  0.00    +0.095 C 
ATOM     39  C   UNL     1      -1.741  -1.599  -6.448  0.00  0.00    +0.085 C 
BRANCH  38  40
ATOM     40  O   UNL     1      -2.465  -3.935  -6.882  0.00  0.00    -0.497 OA
BRANCH  40  41
ATOM     41  C   UNL     1      -1.479  -3.984  -7.918  0.00  0.00    +0.225 C 
ATOM     42  C   UNL     1      -1.734  -5.201  -8.787  0.00  0.00    +0.048 C 
ENDBRANCH  40  41
ENDBRANCH  38  40
ENDBRANCH  36  37
ENDBRANCH  34  35
ENDBRANCH  32  33
ENDBRANCH   2  32
TORSDOF 21
