REMARK  Name = 
REMARK  7 active torsions:
REMARK  status: ('A' for Active; 'I' for Inactive)
REMARK    1  A    between atoms: C_1  and  C_2
REMARK    2  A    between atoms: C_3  and  C_4
REMARK    3  A    between atoms: C_5  and  C_6
REMARK    4  A    between atoms: C_5  and  C_9
REMARK    5  A    between atoms: C_7  and  N_8
REMARK    6  A    between atoms: N_10  and  C_11
REMARK    7  A    between atoms: C_12  and  C_13
REMARK                            x       y       z     vdW  Elec       q    Type
REMARK                         _______ _______ _______ _____ _____    ______ ____
ROOT
ATOM      1  C   UNL     1       4.657  -1.322  -0.149  0.00  0.00    +0.009 C 
ATOM      2  C   UNL     1       5.291  -2.509  -0.229  0.00  0.00    -0.006 C 
ENDROOT
BRANCH   1   5
ATOM      3  C   UNL     1       1.140   0.206  -0.069  0.00  0.00    +0.035 C 
ATOM      4  C   UNL     1       2.628   0.069  -0.078  0.00  0.00    -0.030 C 
ATOM      5  C   UNL     1       3.222  -1.131  -0.149  0.00  0.00    -0.004 C 
ENDBRANCH   1   5
BRANCH   2   6
ATOM      6  C   UNL     1       4.614  -3.782  -0.411  0.00  0.00    +0.024 C 
ATOM      7  C   UNL     1       4.781  -4.854   0.373  0.00  0.00    +0.065 C 
BRANCH   7   8
ATOM      8  N   UNL     1       4.216  -6.088   0.190  0.00  0.00    -0.364 N 
ATOM      9  H   UNL     1       3.410  -6.112  -0.430  0.00  0.00    +0.142 HD
ATOM     10  H   UNL     1       4.092  -6.637   1.037  0.00  0.00    +0.142 HD
ENDBRANCH   7   8
ENDBRANCH   2   6
BRANCH   2  11
ATOM     11  C   UNL     1       6.794  -2.494  -0.222  0.00  0.00    +0.118 C 
ATOM     12  N   UNL     1       7.502  -1.413  -0.121  0.00  0.00    -0.263 NA
BRANCH  12  13
ATOM     13  C   UNL     1       8.863  -1.547  -0.161  0.00  0.00    +0.110 C 
ATOM     14  C   UNL     1       9.647  -0.461  -0.095  0.00  0.00    +0.019 C 
BRANCH  14  15
ATOM     15  C   UNL     1      11.091  -0.495  -0.121  0.00  0.00    -0.006 C 
ATOM     16  C   UNL     1      11.837   0.614  -0.046  0.00  0.00    +0.008 C 
ENDBRANCH  14  15
ENDBRANCH  12  13
ENDBRANCH   2  11
TORSDOF 6
