REMARK  Name = 
REMARK  11 active torsions:
REMARK  status: ('A' for Active; 'I' for Inactive)
REMARK    1  A    between atoms: C_8  and  C_11
REMARK    2  A    between atoms: N_9  and  C_10
REMARK    3  A    between atoms: C_11  and  C_12
REMARK    4  A    between atoms: C_13  and  N_14
REMARK    5  A    between atoms: N_14  and  C_15
REMARK    6  A    between atoms: C_22  and  C_23
REMARK    7  A    between atoms: C_23  and  C_24
REMARK    8  A    between atoms: C_24  and  C_25
REMARK    9  A    between atoms: C_25  and  C_26
REMARK   10  A    between atoms: C_26  and  N_27
REMARK   11  A    between atoms: C_28  and  C_29
REMARK                            x       y       z     vdW  Elec       q    Type
REMARK                         _______ _______ _______ _____ _____    ______ ____
ROOT
ATOM      1  C   UNL     1       5.669   2.378   0.486  0.00  0.00    +0.057 A 
ATOM      2  C   UNL     1       6.983   2.242   0.980  0.00  0.00    +0.035 A 
ATOM      3  C   UNL     1       7.586   3.450   1.284  0.00  0.00    -0.002 A 
ATOM      4  C   UNL     1       6.688   4.084   2.092  0.00  0.00    +0.119 A 
ATOM      5  N   UNL     1       5.445   4.252   1.554  0.00  0.00    -0.253 NA
ATOM      6  C   UNL     1       5.372   3.707   0.345  0.00  0.00    +0.085 A 
ATOM      7  C   UNL     1       6.321   4.323  -0.433  0.00  0.00    +0.034 A 
ATOM      8  C   UNL     1       7.604   4.254   0.167  0.00  0.00    -0.037 A 
ENDROOT
BRANCH   1   9
ATOM      9  N   UNL     1       4.762   1.324   0.628  0.00  0.00    -0.319 N 
ATOM     10  H   UNL     1       5.161   0.465   1.001  0.00  0.00    +0.152 HD
BRANCH   9  12
ATOM     11  C   UNL     1       2.677   0.178   0.424  0.00  0.00    -0.006 C 
ATOM     12  C   UNL     1       3.542   1.124   0.020  0.00  0.00    +0.068 C 
BRANCH  11  13
ATOM     13  C   UNL     1       1.482  -0.352  -0.305  0.00  0.00    +0.079 C 
BRANCH  13  21
ATOM     14  C   UNL     1      -1.149   2.943   0.198  0.00  0.00    +0.077 C 
ATOM     15  C   UNL     1      -0.360   3.119   1.513  0.00  0.00    +0.012 C 
ATOM     16  C   UNL     1       0.144   1.820   2.197  0.00  0.00    +0.035 C 
ATOM     17  C   UNL     1      -0.347   0.684   1.349  0.00  0.00    -0.025 C 
ATOM     18  C   UNL     1      -1.755   0.455   0.869  0.00  0.00    +0.167 C 
ATOM     19  C   UNL     1      -2.227   1.846   0.267  0.00  0.00    +0.158 C 
ATOM     20  O   UNL     1      -3.363   2.081  -0.165  0.00  0.00    -0.295 OA
ATOM     21  C   UNL     1       0.104  -0.107   0.341  0.00  0.00    +0.012 C 
ATOM     22  N   UNL     1      -1.109  -0.544   0.056  0.00  0.00    -0.322 N 
ATOM     23  C   UNL     1      -1.646  -0.968  -1.213  0.00  0.00    +0.130 C 
ENDBRANCH  13  21
ENDBRANCH  11  13
ENDBRANCH   9  12
ENDBRANCH   1   9
BRANCH   8  24
ATOM     24  C   UNL     1       8.584   5.391   0.017  0.00  0.00    +0.036 C 
BRANCH  24  25
ATOM     25  C   UNL     1      10.064   4.991   0.001  0.00  0.00    +0.006 C 
BRANCH  25  26
ATOM     26  C   UNL     1      10.495   4.206  -1.241  0.00  0.00    +0.023 C 
BRANCH  26  27
ATOM     27  C   UNL     1      10.245   4.979  -2.535  0.00  0.00    +0.141 C 
BRANCH  27  28
ATOM     28  N   UNL     1      10.693   4.171  -3.676  0.00  0.00    -0.288 NA
ATOM     29  C   UNL     1      10.408   4.749  -4.792  0.00  0.00    +0.147 C 
BRANCH  29  30
ATOM     30  C   UNL     1      10.741   4.074  -6.083  0.00  0.00    +0.270 C 
ATOM     31  O   UNL     1      10.483   4.637  -7.134  0.00  0.00    -0.295 OA
ENDBRANCH  29  30
ENDBRANCH  27  28
ENDBRANCH  26  27
ENDBRANCH  25  26
ENDBRANCH  24  25
ENDBRANCH   8  24
TORSDOF 10
