REMARK  Name = 
REMARK  3 active torsions:
REMARK  status: ('A' for Active; 'I' for Inactive)
REMARK    1  A    between atoms: C_1  and  C_2
REMARK    2  A    between atoms: C_2  and  C_3
REMARK    3  A    between atoms: C_6  and  O_7
REMARK                            x       y       z     vdW  Elec       q    Type
REMARK                         _______ _______ _______ _____ _____    ______ ____
ROOT
ATOM      1  C   UNL     1       0.994   0.077  -0.195  0.00  0.00    +0.039 C 
ATOM      2  C   UNL     1       2.500  -0.055   0.001  0.00  0.00    +0.084 C 
ATOM      3  C   UNL     1       2.926  -0.034   1.463  0.00  0.00    +0.039 C 
ATOM      4  N   UNL     1       3.244   0.908  -0.773  0.00  0.00    -0.335 N 
ATOM      5  C   UNL     1       3.721  -0.019  -1.573  0.00  0.00    +0.111 C 
ATOM      6  C   UNL     1       3.199  -1.071  -0.891  0.00  0.00    +0.130 C 
ATOM      7  H   UNL     1       2.735   1.711  -1.130  0.00  0.00    +0.147 HD
ENDROOT
BRANCH   6   8
ATOM      8  O   UNL     1       3.180  -2.344  -0.962  0.00  0.00    -0.508 OA
ATOM      9  H   UNL     1       3.766  -2.623  -1.688  0.00  0.00    +0.292 HD
ENDBRANCH   6   8
TORSDOF 1
