REMARK  Name = 
REMARK  8 active torsions:
REMARK  status: ('A' for Active; 'I' for Inactive)
REMARK    1  A    between atoms: N_12  and  C_13
REMARK    2  A    between atoms: C_14  and  C_15
REMARK    3  A    between atoms: C_14  and  C_22
REMARK    4  A    between atoms: C_16  and  C_17
REMARK    5  A    between atoms: C_18  and  C_19
REMARK    6  A    between atoms: N_20  and  C_21
REMARK    7  A    between atoms: C_22  and  C_23
REMARK    8  A    between atoms: C_23  and  C_24
REMARK                            x       y       z     vdW  Elec       q    Type
REMARK                         _______ _______ _______ _____ _____    ______ ____
ROOT
ATOM      1  C   UNL     1       2.256  -0.913  -1.109  0.00  0.00    +0.132 C 
ATOM      2  C   UNL     1       1.274  -1.862  -1.687  0.00  0.00    -0.006 C 
ATOM      3  C   UNL     1       0.636  -2.901  -1.090  0.00  0.00    +0.025 C 
ATOM      4  C   UNL     1      -0.828  -2.700  -1.109  0.00  0.00    +0.060 C 
ATOM      5  C   UNL     1      -1.448  -2.334  -2.253  0.00  0.00    +0.007 C 
ATOM      6  C   UNL     1      -1.862  -0.890  -2.095  0.00  0.00    +0.088 C 
ATOM      7  C   UNL     1      -1.319  -0.754  -0.706  0.00  0.00    +0.090 C 
ATOM      8  N   UNL     1      -1.078  -1.846  -0.062  0.00  0.00    -0.249 NA
ATOM      9  C   UNL     1      -0.911   0.556  -0.174  0.00  0.00    +0.194 C 
ATOM     10  O   UNL     1      -1.829   1.342   0.072  0.00  0.00    -0.289 OA
ATOM     11  C   UNL     1       0.554   0.948  -0.110  0.00  0.00    +0.185 C 
ATOM     12  N   UNL     1       1.870   0.144  -0.124  0.00  0.00    -0.324 N 
ENDROOT
BRANCH  12  13
ATOM     13  C   UNL     1       2.965   0.998   0.261  0.00  0.00    +0.074 C 
ATOM     14  C   UNL     1       4.321   1.027   0.242  0.00  0.00    -0.033 C 
BRANCH  14  15
ATOM     15  C   UNL     1       5.234  -0.066  -0.124  0.00  0.00    +0.013 C 
ATOM     16  C   UNL     1       6.575  -0.028  -0.041  0.00  0.00    +0.060 C 
BRANCH  16  17
ATOM     17  C   UNL     1       7.441  -1.123  -0.308  0.00  0.00    -0.068 C 
ATOM     18  C   UNL     1       8.339  -1.915  -0.436  0.00  0.00    -0.050 C 
BRANCH  18  19
ATOM     19  C   UNL     1       9.515  -2.729  -0.522  0.00  0.00    +0.164 C 
ATOM     20  N   UNL     1      10.180  -2.514  -1.596  0.00  0.00    -0.286 NA
ATOM     21  C   UNL     1      11.429  -3.266  -1.648  0.00  0.00    +0.171 C 
ENDBRANCH  18  19
ENDBRANCH  16  17
ENDBRANCH  14  15
BRANCH  14  22
ATOM     22  C   UNL     1       4.975   2.337   0.721  0.00  0.00    +0.036 C 
BRANCH  22  23
ATOM     23  C   UNL     1       5.502   3.271  -0.385  0.00  0.00    +0.001 C 
ATOM     24  C   UNL     1       4.409   3.918  -1.225  0.00  0.00    +0.004 C 
ENDBRANCH  22  23
ENDBRANCH  14  22
ENDBRANCH  12  13
TORSDOF 6
