REMARK  Name = 
REMARK  14 active torsions:
REMARK  status: ('A' for Active; 'I' for Inactive)
REMARK    1  A    between atoms: C_4  and  C_5
REMARK    2  A    between atoms: C_5  and  C_6
REMARK    3  A    between atoms: C_5  and  C_15
REMARK    4  A    between atoms: C_6  and  C_7
REMARK    5  A    between atoms: C_7  and  N_8
REMARK    6  A    between atoms: N_8  and  C_9
REMARK    7  A    between atoms: C_10  and  C_11
REMARK    8  A    between atoms: C_11  and  C_13
REMARK    9  A    between atoms: C_13  and  C_14
REMARK   10  A    between atoms: N_17  and  C_18
REMARK   11  A    between atoms: C_18  and  C_19
REMARK   12  A    between atoms: C_20  and  C_21
REMARK   13  A    between atoms: C_20  and  C_22
REMARK   14  A    between atoms: C_22  and  C_23
REMARK                            x       y       z     vdW  Elec       q    Type
REMARK                         _______ _______ _______ _____ _____    ______ ____
ROOT
ATOM      1  C   UNL     1       1.429  -0.496   1.708  0.00  0.00    +0.039 C 
ENDROOT
BRANCH   1   5
ATOM      2  C   UNL     1       0.370   1.142  -0.094  0.00  0.00    +0.034 C 
ATOM      3  C   UNL     1      -0.964   0.408   0.095  0.00  0.00    +0.083 C 
ATOM      4  N   UNL     1      -0.261  -0.863  -0.181  0.00  0.00    -0.313 NA
ATOM      5  C   UNL     1       1.028  -0.229   0.230  0.00  0.00    +0.062 C 
ATOM      6  H   UNL     1      -0.280  -1.100  -1.177  0.00  0.00    +0.122 HD
ENDBRANCH   1   5
BRANCH   1   7
ATOM      7  C   UNL     1       2.720   0.266   1.972  0.00  0.00    +0.049 C 
ATOM      8  C   UNL     1       3.095   0.737   3.124  0.00  0.00    -0.022 C 
ATOM      9  N   UNL     1       3.451   1.124   4.180  0.00  0.00    -0.238 NA
BRANCH   9  10
ATOM     10  C   UNL     1       2.364   1.670   5.002  0.00  0.00    +0.179 C 
BRANCH  10  11
ATOM     11  C   UNL     1       2.896   2.190   6.307  0.00  0.00    -0.004 C 
ATOM     12  C   UNL     1       2.141   2.763   7.271  0.00  0.00    -0.075 C 
ATOM     13  C   UNL     1       0.647   2.921   7.136  0.00  0.00    +0.039 C 
BRANCH  12  14
ATOM     14  C   UNL     1       2.762   3.237   8.573  0.00  0.00    +0.027 C 
ATOM     15  C   UNL     1       2.589   4.724   8.865  0.00  0.00    +0.008 C 
ENDBRANCH  12  14
ENDBRANCH  10  11
ENDBRANCH   9  10
ENDBRANCH   1   7
BRANCH   1  16
ATOM     16  C   UNL     1       1.591  -2.017   1.976  0.00  0.00    +0.028 C 
BRANCH  16  17
ATOM     17  C   UNL     1       1.947  -2.309   3.436  0.00  0.00    +0.101 C 
BRANCH  17  18
ATOM     18  N   UNL     1       2.144  -3.731   3.690  0.00  0.00    -0.350 N 
ATOM     19  H   UNL     1       1.347  -4.342   3.518  0.00  0.00    +0.146 HD
BRANCH  18  20
ATOM     20  C   UNL     1       3.012  -4.160   4.670  0.00  0.00    +0.067 C 
ATOM     21  C   UNL     1       3.283  -5.409   5.064  0.00  0.00    +0.018 C 
BRANCH  21  22
ATOM     22  C   UNL     1       4.311  -5.725   6.047  0.00  0.00    -0.054 C 
ATOM     23  C   UNL     1       4.234  -5.292   7.318  0.00  0.00    +0.012 C 
BRANCH  22  24
ATOM     24  C   UNL     1       5.437  -6.618   5.571  0.00  0.00    +0.031 C 
ATOM     25  C   UNL     1       6.277  -6.021   4.443  0.00  0.00    +0.009 C 
ENDBRANCH  22  24
ENDBRANCH  21  22
ENDBRANCH  18  20
ENDBRANCH  17  18
ENDBRANCH  16  17
ENDBRANCH   1  16
TORSDOF 11
