REMARK  Name = 
REMARK  6 active torsions:
REMARK  status: ('A' for Active; 'I' for Inactive)
REMARK    1  A    between atoms: C_1  and  C_2
REMARK    2  A    between atoms: C_5  and  C_6
REMARK    3  A    between atoms: C_6  and  C_9
REMARK    4  A    between atoms: C_7  and  N_8
REMARK    5  A    between atoms: C_14  and  C_19
REMARK    6  A    between atoms: C_17  and  C_18
REMARK                            x       y       z     vdW  Elec       q    Type
REMARK                         _______ _______ _______ _____ _____    ______ ____
ROOT
ATOM      1  C   UNL     1       1.969  -5.475   1.931  0.00  0.00    +0.040 C 
ATOM      2  C   UNL     1       3.143  -4.518   1.976  0.00  0.00    -0.058 C 
ATOM      3  C   UNL     1       3.652  -3.931   0.855  0.00  0.00    +0.001 C 
ATOM      4  C   UNL     1       4.933  -3.194   0.734  0.00  0.00    +0.008 C 
ATOM      5  C   UNL     1       5.604  -2.314   1.539  0.00  0.00    -0.020 C 
ATOM      6  C   UNL     1       5.027  -1.753   2.775  0.00  0.00    +0.004 C 
ATOM      7  C   UNL     1       3.706  -1.707   2.990  0.00  0.00    -0.022 C 
ATOM      8  C   UNL     1       3.185  -2.823   3.902  0.00  0.00    +0.027 C 
ATOM      9  C   UNL     1       3.630  -4.224   3.353  0.00  0.00    +0.037 C 
ATOM     10  C   UNL     1       3.926  -5.281   4.291  0.00  0.00    -0.011 C 
ATOM     11  C   UNL     1       4.963  -4.799   3.620  0.00  0.00    -0.061 C 
ATOM     12  C   UNL     1       5.838  -5.638   2.737  0.00  0.00    +0.040 C 
ATOM     13  C   UNL     1       1.649  -2.692   3.912  0.00  0.00    +0.013 C 
ENDROOT
BRANCH   5  14
ATOM     14  C   UNL     1       7.081  -2.175   1.322  0.00  0.00    -0.016 C 
ATOM     15  C   UNL     1       7.995  -2.520   2.266  0.00  0.00    +0.069 C 
BRANCH  15  16
ATOM     16  N   UNL     1       7.893  -3.015   3.545  0.00  0.00    -0.364 N 
ATOM     17  H   UNL     1       6.992  -3.434   3.757  0.00  0.00    +0.142 HD
ATOM     18  H   UNL     1       8.666  -3.615   3.826  0.00  0.00    +0.142 HD
ENDBRANCH  15  16
BRANCH  14  19
ATOM     19  C   UNL     1       7.575  -1.724   0.011  0.00  0.00    +0.066 C 
ATOM     20  C   UNL     1       6.913  -0.768  -0.816  0.00  0.00    -0.018 C 
ATOM     21  C   UNL     1       7.898  -0.322  -0.042  0.00  0.00    -0.018 C 
ENDBRANCH  14  19
ENDBRANCH   5  14
TORSDOF 3
