REMARK  Name = 
REMARK  9 active torsions:
REMARK  status: ('A' for Active; 'I' for Inactive)
REMARK    1  A    between atoms: C_1  and  C_2
REMARK    2  A    between atoms: C_3  and  C_4
REMARK    3  A    between atoms: C_5  and  C_6
REMARK    4  A    between atoms: C_7  and  N_8
REMARK    5  A    between atoms: N_8  and  C_9
REMARK    6  A    between atoms: N_8  and  C_12
REMARK    7  A    between atoms: C_9  and  C_10
REMARK    8  A    between atoms: C_13  and  C_14
REMARK    9  A    between atoms: C_16  and  C_17
REMARK                            x       y       z     vdW  Elec       q    Type
REMARK                         _______ _______ _______ _____ _____    ______ ____
ROOT
ATOM      1  N   UNL     1      10.632 -11.243  -6.769  0.00  0.00    -0.309 N 
ENDROOT
BRANCH   1   3
ATOM      2  C   UNL     1       9.084 -10.007  -8.194  0.00  0.00    +0.015 C 
ATOM      3  C   UNL     1      10.261 -10.602  -7.951  0.00  0.00    +0.075 C 
BRANCH   2   5
ATOM      4  C   UNL     1       7.520  -8.739  -9.555  0.00  0.00    -0.000 C 
ATOM      5  C   UNL     1       8.729  -9.307  -9.412  0.00  0.00    +0.001 C 
BRANCH   4   8
ATOM      6  C   UNL     1       5.298  -6.706 -11.940  0.00  0.00    +0.035 C 
ATOM      7  C   UNL     1       5.829  -7.475 -10.780  0.00  0.00    -0.030 C 
ATOM      8  C   UNL     1       7.064  -8.002 -10.717  0.00  0.00    -0.005 C 
ENDBRANCH   4   8
ENDBRANCH   2   5
ENDBRANCH   1   3
BRANCH   1   9
ATOM      9  C   UNL     1      11.160 -10.537  -5.683  0.00  0.00    +0.075 C 
ATOM     10  C   UNL     1      11.427  -9.230  -5.520  0.00  0.00    +0.020 C 
BRANCH  10  11
ATOM     11  C   UNL     1      12.025  -8.651  -4.325  0.00  0.00    -0.031 C 
ATOM     12  C   UNL     1      12.230  -7.336  -4.174  0.00  0.00    -0.007 C 
ATOM     13  C   UNL     1      12.476  -9.487  -3.169  0.00  0.00    +0.040 C 
ATOM     14  C   UNL     1      13.795 -10.199  -3.479  0.00  0.00    +0.017 C 
ATOM     15  C   UNL     1      12.691  -8.480  -2.103  0.00  0.00    -0.010 C 
ATOM     16  C   UNL     1      12.727  -7.219  -2.513  0.00  0.00    -0.013 C 
ATOM     17  C   UNL     1      12.719  -6.284  -3.481  0.00  0.00    -0.017 C 
ATOM     18  C   UNL     1      13.033  -5.008  -3.617  0.00  0.00    +0.018 C 
ENDBRANCH  10  11
ENDBRANCH   1   9
BRANCH   1  19
ATOM     19  C   UNL     1      10.255 -12.665  -6.582  0.00  0.00    +0.136 C 
BRANCH  19  20
ATOM     20  C   UNL     1      11.371 -13.640  -6.859  0.00  0.00    -0.015 C 
ATOM     21  C   UNL     1      12.612 -13.411  -7.317  0.00  0.00    +0.005 C 
ENDBRANCH  19  20
ENDBRANCH   1  19
TORSDOF 7
