REMARK  Name = 
REMARK  4 active torsions:
REMARK  status: ('A' for Active; 'I' for Inactive)
REMARK    1  A    between atoms: C_2  and  C_3
REMARK    2  A    between atoms: C_3  and  C_4
REMARK    3  A    between atoms: C_4  and  C_15
REMARK    4  A    between atoms: C_19  and  C_20
REMARK                            x       y       z     vdW  Elec       q    Type
REMARK                         _______ _______ _______ _____ _____    ______ ____
ROOT
ATOM      1  C   UNL     1       4.703   0.499  -1.157  0.00  0.00    -0.007 C 
ATOM      2  C   UNL     1       5.332   1.882  -0.748  0.00  0.00    +0.039 C 
ATOM      3  C   UNL     1       6.728   2.046  -0.187  0.00  0.00    -0.015 C 
ATOM      4  C   UNL     1       7.714   1.176   0.025  0.00  0.00    +0.005 C 
ATOM      5  C   UNL     1       8.011  -0.235  -0.207  0.00  0.00    +0.005 A 
ATOM      6  C   UNL     1       8.444  -0.552   1.060  0.00  0.00    +0.120 A 
ATOM      7  N   UNL     1       9.194   0.513   1.609  0.00  0.00    -0.254 NA
ATOM      8  C   UNL     1       9.089   1.357   0.589  0.00  0.00    +0.072 A 
ATOM      9  C   UNL     1       9.899   1.040  -0.645  0.00  0.00    +0.033 A 
ATOM     10  C   UNL     1       9.192  -0.015  -1.135  0.00  0.00    -0.032 A 
ATOM     11  C   UNL     1       9.569  -0.915  -2.271  0.00  0.00    +0.066 C 
ATOM     12  C   UNL     1       4.748  -0.482   0.039  0.00  0.00    +0.016 C 
ATOM     13  C   UNL     1       5.443   0.068  -2.431  0.00  0.00    -0.020 C 
ATOM     14  C   UNL     1       6.349  -0.920  -2.513  0.00  0.00    -0.004 C 
ATOM     15  C   UNL     1       7.293  -1.070  -3.586  0.00  0.00    -0.001 C 
ATOM     16  C   UNL     1       8.638  -1.134  -3.468  0.00  0.00    -0.068 C 
ATOM     17  C   UNL     1       9.427  -1.557  -4.696  0.00  0.00    +0.039 C 
ENDROOT
BRANCH   1  18
ATOM     18  C   UNL     1       3.186   0.783  -1.464  0.00  0.00    +0.037 C 
BRANCH  18  20
ATOM     19  C   UNL     1       1.347  -0.872  -0.992  0.00  0.00    +0.004 C 
ATOM     20  C   UNL     1       2.331  -0.427  -1.780  0.00  0.00    -0.034 C 
ENDBRANCH  18  20
ENDBRANCH   1  18
TORSDOF 2
