REMARK  Name = 
REMARK  6 active torsions:
REMARK  status: ('A' for Active; 'I' for Inactive)
REMARK    1  A    between atoms: C_4  and  C_11
REMARK    2  A    between atoms: C_8  and  C_9
REMARK    3  A    between atoms: C_13  and  C_14
REMARK    4  A    between atoms: C_14  and  N_15
REMARK    5  A    between atoms: C_16  and  C_17
REMARK    6  A    between atoms: C_19  and  N_20
REMARK                            x       y       z     vdW  Elec       q    Type
REMARK                         _______ _______ _______ _____ _____    ______ ____
ROOT
ATOM      1  C   UNL     1      -2.491   0.547   0.635  0.00  0.00    -0.039 C 
ATOM      2  C   UNL     1      -3.191  -0.269   1.419  0.00  0.00    -0.013 C 
ATOM      3  C   UNL     1      -3.708  -0.038   0.100  0.00  0.00    +0.059 C 
ENDROOT
BRANCH   1   7
ATOM      4  C   UNL     1       1.028  -0.454  -0.110  0.00  0.00    -0.033 C 
ATOM      5  C   UNL     1       1.024   0.853  -0.388  0.00  0.00    +0.005 C 
ATOM      6  C   UNL     1      -0.308   1.344  -0.101  0.00  0.00    +0.005 C 
ATOM      7  C   UNL     1      -1.114   0.342   0.314  0.00  0.00    -0.036 C 
ATOM      8  C   UNL     1      -0.253  -0.890   0.551  0.00  0.00    +0.054 C 
ATOM      9  C   UNL     1      -0.430  -2.282  -0.065  0.00  0.00    +0.040 C 
ATOM     10  C   UNL     1       0.944  -2.614  -0.627  0.00  0.00    -0.018 C 
ATOM     11  C   UNL     1       1.768  -1.552  -0.672  0.00  0.00    -0.026 C 
BRANCH  11  12
ATOM     12  C   UNL     1       3.082  -1.484  -1.267  0.00  0.00    +0.000 C 
ATOM     13  C   UNL     1       3.737  -2.454  -1.916  0.00  0.00    +0.009 C 
ENDBRANCH  11  12
ENDBRANCH   1   7
BRANCH   3  14
ATOM     14  C   UNL     1      -5.025   0.696   0.000  0.00  0.00    +0.119 C 
BRANCH  14  15
ATOM     15  N   UNL     1      -5.551   0.659  -1.359  0.00  0.00    -0.312 N 
ATOM     16  C   UNL     1      -4.971   1.466  -2.397  0.00  0.00    +0.098 C 
ATOM     17  C   UNL     1      -4.033   0.663  -3.280  0.00  0.00    +0.032 C 
ATOM     18  C   UNL     1      -6.397   1.573  -2.856  0.00  0.00    +0.033 C 
ATOM     19  C   UNL     1      -6.778   0.979  -1.703  0.00  0.00    +0.082 C 
BRANCH  19  20
ATOM     20  N   UNL     1      -7.885   0.715  -1.092  0.00  0.00    -0.347 N 
ATOM     21  H   UNL     1      -8.782   0.832  -1.553  0.00  0.00    +0.143 HD
ATOM     22  H   UNL     1      -7.925   0.050  -0.329  0.00  0.00    +0.143 HD
ENDBRANCH  19  20
ENDBRANCH  14  15
ENDBRANCH   3  14
TORSDOF 5
