REMARK  Name = 
REMARK  15 active torsions:
REMARK  status: ('A' for Active; 'I' for Inactive)
REMARK    1  A    between atoms: C_2  and  C_3
REMARK    2  A    between atoms: C_3  and  C_4
REMARK    3  A    between atoms: C_3  and  C_6
REMARK    4  A    between atoms: C_7  and  C_8
REMARK    5  A    between atoms: C_8  and  C_9
REMARK    6  A    between atoms: C_9  and  C_10
REMARK    7  A    between atoms: C_10  and  C_11
REMARK    8  A    between atoms: C_11  and  C_12
REMARK    9  A    between atoms: C_12  and  C_13
REMARK   10  A    between atoms: C_13  and  C_14
REMARK   11  A    between atoms: C_14  and  C_15
REMARK   12  A    between atoms: C_15  and  C_16
REMARK   13  A    between atoms: C_16  and  C_17
REMARK   14  A    between atoms: C_17  and  C_18
REMARK   15  A    between atoms: C_18  and  C_19
REMARK                            x       y       z     vdW  Elec       q    Type
REMARK                         _______ _______ _______ _____ _____    ______ ____
ROOT
ATOM      1  C   UNL     1       9.173   2.686   1.077  0.00  0.00    +0.000 C 
ENDROOT
BRANCH   1   2
ATOM      2  C   UNL     1       7.675   2.935   1.179  0.00  0.00    +0.004 C 
BRANCH   2   3
ATOM      3  C   UNL     1       6.902   1.726   0.671  0.00  0.00    +0.027 C 
BRANCH   3   5
ATOM      4  C   UNL     1       4.622   1.953  -0.305  0.00  0.00    -0.016 C 
ATOM      5  C   UNL     1       5.428   1.961   0.770  0.00  0.00    -0.030 C 
BRANCH   4   6
ATOM      6  C   UNL     1       3.136   2.175  -0.226  0.00  0.00    +0.096 C 
BRANCH   6   8
ATOM      7  C   UNL     1       2.126   4.455  -0.517  0.00  0.00    +0.005 C 
ATOM      8  C   UNL     1       2.707   3.374  -1.038  0.00  0.00    -0.020 C 
ENDBRANCH   6   8
BRANCH   6   9
ATOM      9  C   UNL     1       2.399   0.916  -0.694  0.00  0.00    +0.234 C 
ATOM     10  O   UNL     1       2.464   0.446  -1.831  0.00  0.00    -0.300 OA
ENDBRANCH   6   9
ENDBRANCH   4   6
ENDBRANCH   3   5
ENDBRANCH   2   3
ENDBRANCH   1   2
BRANCH   1  11
ATOM     11  C   UNL     1       9.939   3.896   1.586  0.00  0.00    +0.000 C 
BRANCH  11  12
ATOM     12  C   UNL     1      11.434   3.648   1.483  0.00  0.00    +0.000 C 
BRANCH  12  13
ATOM     13  C   UNL     1      12.200   4.857   1.991  0.00  0.00    +0.000 C 
BRANCH  13  14
ATOM     14  C   UNL     1      13.695   4.607   1.886  0.00  0.00    +0.000 C 
BRANCH  14  15
ATOM     15  C   UNL     1      14.464   5.815   2.394  0.00  0.00    +0.000 C 
BRANCH  15  16
ATOM     16  C   UNL     1      15.961   5.566   2.289  0.00  0.00    +0.000 C 
BRANCH  16  17
ATOM     17  C   UNL     1      16.728   6.776   2.798  0.00  0.00    +0.002 C 
BRANCH  17  18
ATOM     18  C   UNL     1      18.228   6.545   2.699  0.00  0.00    +0.033 C 
BRANCH  18  19
ATOM     19  C   UNL     1      18.988   7.752   3.208  0.00  0.00    +0.213 C 
ATOM     20  F   UNL     1      20.319   7.503   3.102  0.00  0.00    -0.249 F 
ENDBRANCH  18  19
ENDBRANCH  17  18
ENDBRANCH  16  17
ENDBRANCH  15  16
ENDBRANCH  14  15
ENDBRANCH  13  14
ENDBRANCH  12  13
ENDBRANCH  11  12
ENDBRANCH   1  11
TORSDOF 15
