REMARK  Name = 
REMARK  13 active torsions:
REMARK  status: ('A' for Active; 'I' for Inactive)
REMARK    1  A    between atoms: C_1  and  C_2
REMARK    2  A    between atoms: C_3  and  S_4
REMARK    3  A    between atoms: C_5  and  C_6
REMARK    4  A    between atoms: C_6  and  C_7
REMARK    5  A    between atoms: C_7  and  C_9
REMARK    6  A    between atoms: C_10  and  C_11
REMARK    7  A    between atoms: C_10  and  O_12
REMARK    8  A    between atoms: O_12  and  O_13
REMARK    9  A    between atoms: O_13  and  C_14
REMARK   10  A    between atoms: C_14  and  C_15
REMARK   11  A    between atoms: C_15  and  C_16
REMARK   12  A    between atoms: C_16  and  C_17
REMARK   13  A    between atoms: C_17  and  C_18
REMARK                            x       y       z     vdW  Elec       q    Type
REMARK                         _______ _______ _______ _____ _____    ______ ____
ROOT
ATOM      1  C   UNL     1       8.519  -0.464  -5.120  0.00  0.00    +0.048 C 
ATOM      2  C   UNL     1       8.946  -0.557  -6.404  0.00  0.00    +0.140 C 
ATOM      3  C   UNL     1       8.115  -0.678  -7.658  0.00  0.00    +0.090 C 
ENDROOT
BRANCH   1   4
ATOM      4  C   UNL     1       7.168  -0.384  -4.535  0.00  0.00    -0.047 C 
ATOM      5  C   UNL     1       6.091  -1.046  -5.069  0.00  0.00    +0.012 C 
BRANCH   4   6
ATOM      6  C   UNL     1       7.001   0.381  -3.213  0.00  0.00    +0.068 C 
BRANCH   6   8
ATOM      7  S   UNL     1       5.165   2.611  -2.818  0.00  0.00    -0.180 S 
ATOM      8  C   UNL     1       6.660   1.835  -3.464  0.00  0.00    +0.009 C 
ATOM      9  H   UNL     1       4.305   2.156  -3.703  0.00  0.00    +0.100 HD
BRANCH   7  12
ATOM     10  C   UNL     1       6.654   6.447  -3.297  0.00  0.00    +0.036 C 
ATOM     11  C   UNL     1       6.233   5.093  -2.818  0.00  0.00    -0.024 C 
ATOM     12  C   UNL     1       5.528   4.221  -3.557  0.00  0.00    +0.026 C 
ENDBRANCH   7  12
ENDBRANCH   6   8
ENDBRANCH   4   6
ENDBRANCH   1   4
BRANCH   2  13
ATOM     13  O   UNL     1      10.342  -0.560  -6.628  0.00  0.00    -0.340 OA
BRANCH  13  14
ATOM     14  O   UNL     1      10.582  -0.010  -7.972  0.00  0.00    -0.187 OA
BRANCH  14  15
ATOM     15  C   UNL     1      11.395   1.147  -7.799  0.00  0.00    +0.215 C 
BRANCH  15  16
ATOM     16  C   UNL     1      11.639   1.794  -9.168  0.00  0.00    +0.032 C 
BRANCH  16  17
ATOM     17  C   UNL     1      12.530   3.028  -9.040  0.00  0.00    +0.002 C 
BRANCH  17  18
ATOM     18  C   UNL     1      12.791   3.698 -10.389  0.00  0.00    -0.003 C 
ATOM     19  C   UNL     1      13.681   4.922 -10.224  0.00  0.00    +0.004 C 
ENDBRANCH  17  18
ENDBRANCH  16  17
ENDBRANCH  15  16
ENDBRANCH  14  15
ENDBRANCH  13  14
ENDBRANCH   2  13
TORSDOF 10
