REMARK  Name = 
REMARK  0 active torsions:
REMARK  status: ('A' for Active; 'I' for Inactive)
REMARK                            x       y       z     vdW  Elec       q    Type
REMARK                         _______ _______ _______ _____ _____    ______ ____
ROOT
ATOM      1  C   UNL     1      -0.111   1.161  -0.024  0.00  0.00    +0.007 C 
ATOM      2  C   UNL     1      -1.372   0.690  -0.020  0.00  0.00    +0.001 C 
ATOM      3  C   UNL     1      -1.344  -0.763  -0.007  0.00  0.00    +0.001 C 
ATOM      4  C   UNL     1      -0.067  -1.187  -0.003  0.00  0.00    +0.007 C 
ATOM      5  C   UNL     1       0.762   0.003  -0.017  0.00  0.00    -0.032 C 
ATOM      6  C   UNL     1       2.096   0.028  -0.025  0.00  0.00    +0.017 C 
ENDROOT
TORSDOF 0
