REMARK  Name = 
REMARK  2 active torsions:
REMARK  status: ('A' for Active; 'I' for Inactive)
REMARK    1  A    between atoms: C_1  and  C_2
REMARK    2  A    between atoms: C_2  and  C_3
REMARK                            x       y       z     vdW  Elec       q    Type
REMARK                         _______ _______ _______ _____ _____    ______ ____
ROOT
ATOM      1  C   UNL     1       1.059  -0.011   0.088  0.00  0.00    +0.011 C 
ATOM      2  C   UNL     1       2.575  -0.001   0.068  0.00  0.00    +0.067 C 
ENDROOT
BRANCH   2   3
ATOM      3  C   UNL     1       3.120   0.640  -1.183  0.00  0.00    +0.223 C 
ATOM      4  O   UNL     1       2.432   1.103  -2.087  0.00  0.00    -0.301 OA
ENDBRANCH   2   3
TORSDOF 1
