REMARK  Name = 
REMARK  15 active torsions:
REMARK  status: ('A' for Active; 'I' for Inactive)
REMARK    1  A    between atoms: C_2  and  C_3
REMARK    2  A    between atoms: C_11  and  C_12
REMARK    3  A    between atoms: C_12  and  C_14
REMARK    4  A    between atoms: C_15  and  N_16
REMARK    5  A    between atoms: N_16  and  C_17
REMARK    6  A    between atoms: N_16  and  C_18
REMARK    7  A    between atoms: C_18  and  C_19
REMARK    8  A    between atoms: C_18  and  C_26
REMARK    9  A    between atoms: C_19  and  C_20
REMARK   10  A    between atoms: C_21  and  C_22
REMARK   11  A    between atoms: C_21  and  C_23
REMARK   12  A    between atoms: C_23  and  C_24
REMARK   13  A    between atoms: C_26  and  C_27
REMARK   14  A    between atoms: C_27  and  C_28
REMARK   15  A    between atoms: C_28  and  N_29
REMARK                            x       y       z     vdW  Elec       q    Type
REMARK                         _______ _______ _______ _____ _____    ______ ____
ROOT
ATOM      1  N   UNL     1       7.778  -7.730  -1.966  0.00  0.00    -0.335 N 
ATOM      2  C   UNL     1       8.727  -7.556  -0.865  0.00  0.00    +0.129 C 
ENDROOT
BRANCH   1   4
ATOM      3  C   UNL     1       6.819  -5.477  -1.917  0.00  0.00    +0.018 C 
ATOM      4  C   UNL     1       6.758  -6.799  -2.116  0.00  0.00    +0.070 C 
BRANCH   3   5
ATOM      5  C   UNL     1       5.787  -4.528  -2.298  0.00  0.00    -0.046 C 
ATOM      6  C   UNL     1       6.230  -3.299  -2.642  0.00  0.00    +0.013 C 
BRANCH   5  15
ATOM      7  C   UNL     1       1.179  -3.272  -3.069  0.00  0.00    +0.000 A 
ATOM      8  C   UNL     1       2.023  -4.378  -2.700  0.00  0.00    -0.024 A 
ATOM      9  C   UNL     1       3.147  -4.283  -1.794  0.00  0.00    -0.017 A 
ATOM     10  C   UNL     1       3.424  -2.964  -1.541  0.00  0.00    +0.115 A 
ATOM     11  N   UNL     1       3.168  -2.129  -2.567  0.00  0.00    -0.258 NA
ATOM     12  C   UNL     1       2.355  -2.648  -3.532  0.00  0.00    +0.056 A 
ATOM     13  C   UNL     1       2.636  -4.173  -4.115  0.00  0.00    +0.070 C 
ATOM     14  C   UNL     1       3.991  -4.861  -4.016  0.00  0.00    +0.027 C 
ATOM     15  C   UNL     1       4.346  -5.014  -2.513  0.00  0.00    +0.051 C 
BRANCH   7  17
ATOM     16  C   UNL     1      -0.639  -2.139  -4.192  0.00  0.00    +0.009 C 
ATOM     17  C   UNL     1      -0.033  -3.293  -3.882  0.00  0.00    +0.002 C 
ENDBRANCH   7  17
ENDBRANCH   5  15
ENDBRANCH   3   5
ENDBRANCH   1   4
BRANCH   1  18
ATOM     18  C   UNL     1       7.687  -9.078  -2.626  0.00  0.00    +0.076 C 
BRANCH  18  19
ATOM     19  C   UNL     1       7.039  -8.984  -4.062  0.00  0.00    +0.049 C 
BRANCH  19  20
ATOM     20  C   UNL     1       7.774  -8.118  -5.058  0.00  0.00    -0.026 C 
ATOM     21  C   UNL     1       7.716  -8.193  -6.405  0.00  0.00    -0.073 C 
ATOM     22  C   UNL     1       6.831  -9.145  -7.163  0.00  0.00    +0.039 C 
BRANCH  21  23
ATOM     23  C   UNL     1       8.613  -7.324  -7.266  0.00  0.00    +0.056 C 
BRANCH  23  24
ATOM     24  C   UNL     1       7.955  -6.050  -7.710  0.00  0.00    -0.030 C 
ATOM     25  C   UNL     1       7.831  -5.669  -8.988  0.00  0.00    +0.004 C 
ENDBRANCH  23  24
ENDBRANCH  21  23
ENDBRANCH  19  20
ENDBRANCH  18  19
BRANCH  18  26
ATOM     26  C   UNL     1       9.047  -9.811  -2.781  0.00  0.00    +0.024 C 
BRANCH  26  27
ATOM     27  C   UNL     1       9.727 -10.396  -1.536  0.00  0.00    +0.027 C 
BRANCH  27  28
ATOM     28  C   UNL     1       8.831 -11.274  -0.670  0.00  0.00    +0.165 C 
BRANCH  28  29
ATOM     29  N   UNL     1       9.589 -11.645   0.536  0.00  0.00    -0.195 NA
ATOM     30  N   UNL     1       8.890 -12.274   1.353  0.00  0.00    -0.208 NA
ATOM     31  H   UNL     1       9.419 -12.522   2.199  0.00  0.00    +0.211 HD
ENDBRANCH  28  29
ENDBRANCH  27  28
ENDBRANCH  26  27
ENDBRANCH  18  26
ENDBRANCH   1  18
TORSDOF 13
