REMARK  Name = 
REMARK  4 active torsions:
REMARK  status: ('A' for Active; 'I' for Inactive)
REMARK    1  A    between atoms: C_2  and  C_3
REMARK    2  A    between atoms: C_3  and  C_4
REMARK    3  A    between atoms: C_5  and  C_6
REMARK    4  A    between atoms: C_6  and  N_7
REMARK                            x       y       z     vdW  Elec       q    Type
REMARK                         _______ _______ _______ _____ _____    ______ ____
ROOT
ATOM      1  N   UNL     1       7.828  -2.816  -0.814  0.00  0.00    -0.282 NA
ATOM      2  C   UNL     1       9.017  -2.697  -1.269  0.00  0.00    +0.058 C 
ATOM      3  C   UNL     1       9.749  -3.938  -1.729  0.00  0.00    +0.075 C 
ATOM      4  C   UNL     1      10.785  -3.383  -2.711  0.00  0.00    +0.108 C 
ATOM      5  N   UNL     1      10.914  -1.960  -2.404  0.00  0.00    -0.343 N 
ATOM      6  C   UNL     1       9.927  -1.523  -1.544  0.00  0.00    +0.041 C 
ATOM      7  C   UNL     1       9.892  -0.319  -0.971  0.00  0.00    +0.035 C 
ATOM      8  H   UNL     1      11.019  -1.350  -3.214  0.00  0.00    +0.146 HD
ENDROOT
BRANCH   1   9
ATOM      9  C   UNL     1       7.064  -1.623  -0.489  0.00  0.00    +0.169 C 
BRANCH   9  11
ATOM     10  C   UNL     1       4.821  -1.217  -1.513  0.00  0.00    -0.025 C 
ATOM     11  C   UNL     1       5.602  -1.905  -0.664  0.00  0.00    -0.008 C 
BRANCH  10  12
ATOM     12  C   UNL     1       3.341  -1.401  -1.659  0.00  0.00    +0.053 C 
BRANCH  12  14
ATOM     13  C   UNL     1       2.176  -1.067  -3.861  0.00  0.00    +0.004 C 
ATOM     14  C   UNL     1       2.971  -1.790  -3.060  0.00  0.00    -0.030 C 
ENDBRANCH  12  14
ENDBRANCH  10  12
ENDBRANCH   9  11
ENDBRANCH   1   9
TORSDOF 4
