REMARK  Name = 
REMARK  10 active torsions:
REMARK  status: ('A' for Active; 'I' for Inactive)
REMARK    1  A    between atoms: C_1  and  C_2
REMARK    2  A    between atoms: C_7  and  C_8
REMARK    3  A    between atoms: C_10  and  C_12
REMARK    4  A    between atoms: C_12  and  C_13
REMARK    5  A    between atoms: C_15  and  C_16
REMARK    6  A    between atoms: C_21  and  C_22
REMARK    7  A    between atoms: C_22  and  C_23
REMARK    8  A    between atoms: C_23  and  C_24
REMARK    9  A    between atoms: C_24  and  C_25
REMARK   10  A    between atoms: C_25  and  C_26
REMARK                            x       y       z     vdW  Elec       q    Type
REMARK                         _______ _______ _______ _____ _____    ______ ____
ROOT
ATOM      1  C   UNL     1       7.703   1.226  -4.208  0.00  0.00    -0.060 C 
ATOM      2  C   UNL     1       8.097   2.109  -5.124  0.00  0.00    -0.018 C 
ATOM      3  C   UNL     1       8.254   0.726  -5.484  0.00  0.00    +0.048 C 
ENDROOT
BRANCH   3   4
ATOM      4  C   UNL     1       9.673   0.215  -5.744  0.00  0.00    +0.048 C 
ATOM      5  C   UNL     1      10.297   0.935  -6.944  0.00  0.00    -0.022 C 
ATOM      6  C   UNL     1      10.872   0.334  -8.001  0.00  0.00    -0.026 C 
ATOM      7  C   UNL     1      10.998  -1.153  -8.128  0.00  0.00    +0.054 C 
ATOM      8  C   UNL     1      10.367  -1.895  -6.984  0.00  0.00    -0.023 C 
ATOM      9  C   UNL     1       9.782  -1.312  -5.916  0.00  0.00    -0.065 C 
BRANCH   9  10
ATOM     10  C   UNL     1       9.257  -2.173  -4.788  0.00  0.00    +0.031 C 
BRANCH  10  11
ATOM     11  C   UNL     1      10.323  -3.034  -4.092  0.00  0.00    +0.004 C 
BRANCH  11  12
ATOM     12  C   UNL     1      11.446  -2.212  -3.454  0.00  0.00    +0.000 C 
BRANCH  12  13
ATOM     13  C   UNL     1      12.451  -3.119  -2.744  0.00  0.00    -0.003 C 
ATOM     14  C   UNL     1      13.576  -2.321  -2.107  0.00  0.00    +0.004 C 
ENDBRANCH  12  13
ENDBRANCH  11  12
ENDBRANCH  10  11
ENDBRANCH   9  10
ENDBRANCH   3   4
BRANCH   1  15
ATOM     15  C   UNL     1       6.260   1.148  -3.783  0.00  0.00    +0.084 C 
BRANCH  15  23
ATOM     16  C   UNL     1       1.409   2.218   0.061  0.00  0.00    +0.040 C 
ATOM     17  C   UNL     1       2.844   1.847  -0.076  0.00  0.00    -0.059 C 
ATOM     18  C   UNL     1       3.395   0.675   0.308  0.00  0.00    +0.005 C 
ATOM     19  C   UNL     1       4.789   0.606  -0.123  0.00  0.00    -0.021 C 
ATOM     20  C   UNL     1       5.700  -0.169   0.473  0.00  0.00    +0.015 C 
ATOM     21  C   UNL     1       4.928   1.631  -1.195  0.00  0.00    +0.137 C 
ATOM     22  C   UNL     1       3.916   2.704  -0.772  0.00  0.00    +0.115 C 
ATOM     23  C   UNL     1       5.875   1.459  -2.349  0.00  0.00    +0.052 C 
ATOM     24  N   UNL     1       4.617   1.100  -2.420  0.00  0.00    -0.271 NA
BRANCH  22  25
ATOM     25  C   UNL     1       3.391   3.585  -1.880  0.00  0.00    +0.234 C 
ATOM     26  O   UNL     1       3.426   4.818  -1.826  0.00  0.00    -0.300 OA
ENDBRANCH  22  25
ENDBRANCH  15  23
ENDBRANCH   1  15
TORSDOF 8
