REMARK  Name = 
REMARK  4 active torsions:
REMARK  status: ('A' for Active; 'I' for Inactive)
REMARK    1  A    between atoms: C_1  and  C_2
REMARK    2  A    between atoms: C_2  and  C_3
REMARK    3  A    between atoms: C_3  and  C_5
REMARK    4  A    between atoms: C_7  and  C_8
REMARK                            x       y       z     vdW  Elec       q    Type
REMARK                         _______ _______ _______ _____ _____    ______ ____
ROOT
ATOM      1  C   UNL     1       3.064   1.142   0.988  0.00  0.00    -0.074 C 
ATOM      2  C   UNL     1       2.287   1.999   1.681  0.00  0.00    +0.008 C 
ENDROOT
BRANCH   1   3
ATOM      3  C   UNL     1       4.529   1.100   1.189  0.00  0.00    +0.018 C 
ATOM      4  C   UNL     1       5.306   2.348   0.819  0.00  0.00    +0.012 C 
ATOM      5  C   UNL     1       5.584   1.055   0.109  0.00  0.00    -0.006 C 
ATOM      6  C   UNL     1       5.319   0.943  -1.351  0.00  0.00    +0.008 C 
ENDBRANCH   1   3
BRANCH   1   8
ATOM      7  C   UNL     1       2.689  -1.306   0.411  0.00  0.00    +0.008 C 
ATOM      8  C   UNL     1       2.412   0.147   0.052  0.00  0.00    +0.027 C 
ENDBRANCH   1   8
TORSDOF 2
