REMARK  Name = 
REMARK  0 active torsions:
REMARK  status: ('A' for Active; 'I' for Inactive)
REMARK                            x       y       z     vdW  Elec       q    Type
REMARK                         _______ _______ _______ _____ _____    ______ ____
ROOT
ATOM      1  C   UNL     1      -1.879  -1.400  -0.005  0.00  0.00    -0.025 C 
ATOM      2  C   UNL     1      -3.096  -0.836  -0.001  0.00  0.00    -0.014 C 
ATOM      3  C   UNL     1      -2.604   0.578   0.007  0.00  0.00    +0.063 C 
ATOM      4  C   UNL     1      -1.230  -0.011   0.003  0.00  0.00    -0.036 C 
ATOM      5  C   UNL     1      -0.516  -1.094  -0.004  0.00  0.00    +0.012 C 
ENDROOT
TORSDOF 0
