REMARK  Name = 
REMARK  6 active torsions:
REMARK  status: ('A' for Active; 'I' for Inactive)
REMARK    1  A    between atoms: C_1  and  C_2
REMARK    2  A    between atoms: C_2  and  C_3
REMARK    3  A    between atoms: C_2  and  N_4
REMARK    4  A    between atoms: N_4  and  C_5
REMARK    5  A    between atoms: C_5  and  C_6
REMARK    6  A    between atoms: C_6  and  C_7
REMARK                            x       y       z     vdW  Elec       q    Type
REMARK                         _______ _______ _______ _____ _____    ______ ____
ROOT
ATOM      1  C   UNL     1       5.014  -1.983   2.016  0.00  0.00    +0.013 C 
ATOM      2  C   UNL     1       4.646  -3.289   2.114  0.00  0.00    -0.007 C 
ATOM      3  C   UNL     1       3.671  -3.816   1.253  0.00  0.00    +0.080 C 
ATOM      4  C   UNL     1       3.311  -5.152   1.341  0.00  0.00    -0.012 C 
ATOM      5  N   UNL     1       3.851  -6.010   2.223  0.00  0.00    -0.213 NA
ATOM      6  C   UNL     1       4.786  -5.507   3.052  0.00  0.00    +0.122 C 
ATOM      7  C   UNL     1       5.206  -4.178   3.036  0.00  0.00    +0.029 C 
ENDROOT
BRANCH   1   8
ATOM      8  C   UNL     1       6.044  -1.399   2.915  0.00  0.00    +0.256 C 
ATOM      9  O   UNL     1       6.750  -0.448   2.595  0.00  0.00    -0.296 OA
ENDBRANCH   1   8
BRANCH   1  10
ATOM     10  C   UNL     1       4.518  -1.008   0.965  0.00  0.00    +0.120 C 
BRANCH  10  11
ATOM     11  N   UNL     1       3.076  -0.713   1.031  0.00  0.00    -0.310 NA
ATOM     12  H   UNL     1       2.836  -0.113   0.241  0.00  0.00    +0.122 HD
BRANCH  11  14
ATOM     13  C   UNL     1       3.303   1.289   2.503  0.00  0.00    +0.023 C 
ATOM     14  C   UNL     1       2.636  -0.067   2.275  0.00  0.00    +0.048 C 
ATOM     15  C   UNL     1       1.117   0.112   2.215  0.00  0.00    +0.023 C 
ENDBRANCH  11  14
ENDBRANCH  10  11
ENDBRANCH   1  10
TORSDOF 4
