REMARK  Name = 
REMARK  16 active torsions:
REMARK  status: ('A' for Active; 'I' for Inactive)
REMARK    1  A    between atoms: C_1  and  C_2
REMARK    2  A    between atoms: C_2  and  C_3
REMARK    3  A    between atoms: C_3  and  C_4
REMARK    4  A    between atoms: C_4  and  N_5
REMARK    5  A    between atoms: N_5  and  C_6
REMARK    6  A    between atoms: N_5  and  C_8
REMARK    7  A    between atoms: C_6  and  C_7
REMARK    8  A    between atoms: C_8  and  C_9
REMARK    9  A    between atoms: N_11  and  C_12
REMARK   10  A    between atoms: C_13  and  C_14
REMARK   11  A    between atoms: C_13  and  C_18
REMARK   12  A    between atoms: C_14  and  C_15
REMARK   13  A    between atoms: C_14  and  N_16
REMARK   14  A    between atoms: C_18  and  C_19
REMARK   15  A    between atoms: C_19  and  C_20
REMARK   16  A    between atoms: C_20  and  C_21
REMARK                            x       y       z     vdW  Elec       q    Type
REMARK                         _______ _______ _______ _____ _____    ______ ____
ROOT
ATOM      1  C   UNL     1       3.059  -0.457   1.339  0.00  0.00    -0.055 C 
ATOM      2  C   UNL     1       4.401  -0.696   1.489  0.00  0.00    -0.045 C 
ENDROOT
BRANCH   1   4
ATOM      3  C   UNL     1       1.251   1.342   0.646  0.00  0.00    +0.008 C 
ATOM      4  C   UNL     1       2.519   0.550   0.316  0.00  0.00    +0.029 C 
ENDBRANCH   1   4
BRANCH   2   5
ATOM      5  C   UNL     1       5.457  -0.223   0.464  0.00  0.00    +0.127 C 
ATOM      6  C   UNL     1       6.853   0.077   1.036  0.00  0.00    +0.037 C 
BRANCH   5   7
ATOM      7  N   UNL     1       5.642  -1.302  -0.528  0.00  0.00    -0.292 NA
ATOM      8  C   UNL     1       5.034  -1.151  -1.652  0.00  0.00    +0.134 C 
ENDBRANCH   5   7
ENDBRANCH   2   5
BRANCH   1   9
ATOM      9  C   UNL     1       2.009  -1.180   2.185  0.00  0.00    +0.115 C 
BRANCH   9  10
ATOM     10  N   UNL     1       0.989  -1.946   1.436  0.00  0.00    -0.290 NA
BRANCH  10  11
ATOM     11  C   UNL     1       1.533  -3.004   0.561  0.00  0.00    +0.082 C 
ATOM     12  C   UNL     1       2.337  -4.157   1.166  0.00  0.00    +0.020 C 
ENDBRANCH  10  11
BRANCH  10  13
ATOM     13  C   UNL     1      -0.003  -2.511   2.389  0.00  0.00    +0.180 C 
BRANCH  13  14
ATOM     14  C   UNL     1      -0.773  -1.402   3.113  0.00  0.00    +0.227 C 
ATOM     15  O   UNL     1      -0.766  -1.291   4.343  0.00  0.00    -0.274 OA
ATOM     16  N   UNL     1      -1.447  -0.544   2.272  0.00  0.00    -0.317 N 
ATOM     17  C   UNL     1      -2.122   0.640   2.737  0.00  0.00    +0.128 C 
ATOM     18  H   UNL     1      -1.323  -0.689   1.277  0.00  0.00    +0.148 HD
ENDBRANCH  13  14
ENDBRANCH  10  13
ENDBRANCH   9  10
ENDBRANCH   1   9
BRANCH   2  19
ATOM     19  C   UNL     1       4.958  -1.550   2.631  0.00  0.00    +0.033 C 
BRANCH  19  20
ATOM     20  C   UNL     1       5.396  -0.778   3.891  0.00  0.00    +0.010 C 
BRANCH  20  21
ATOM     21  C   UNL     1       4.315   0.063   4.571  0.00  0.00    +0.047 C 
BRANCH  21  22
ATOM     22  C   UNL     1       4.915   0.748   5.772  0.00  0.00    +0.074 C 
ATOM     23  N   UNL     1       4.507   0.555   6.983  0.00  0.00    -0.312 NA
ATOM     24  H   UNL     1       3.729  -0.110   7.011  0.00  0.00    +0.186 HD
ENDBRANCH  21  22
ENDBRANCH  20  21
ENDBRANCH  19  20
ENDBRANCH   2  19
TORSDOF 12
