REMARK  Name = 
REMARK  2 active torsions:
REMARK  status: ('A' for Active; 'I' for Inactive)
REMARK    1  A    between atoms: C_1  and  C_2
REMARK    2  A    between atoms: C_2  and  C_3
REMARK                            x       y       z     vdW  Elec       q    Type
REMARK                         _______ _______ _______ _____ _____    ______ ____
ROOT
ATOM      1  C   UNL     1       3.273  -0.470  -1.553  0.00  0.00    -0.019 C 
ATOM      2  C   UNL     1       4.046  -1.528  -1.770  0.00  0.00    -0.029 C 
ATOM      3  C   UNL     1       4.844  -2.453  -2.449  0.00  0.00    +0.008 C 
ATOM      4  C   UNL     1       4.302  -1.574  -3.208  0.00  0.00    +0.008 C 
ENDROOT
BRANCH   1   6
ATOM      5  C   UNL     1       1.249  -0.097  -0.139  0.00  0.00    +0.008 C 
ATOM      6  C   UNL     1       2.769  -0.114  -0.182  0.00  0.00    +0.024 C 
ENDBRANCH   1   6
TORSDOF 1
