REMARK  Name = 
REMARK  2 active torsions:
REMARK  status: ('A' for Active; 'I' for Inactive)
REMARK    1  A    between atoms: C_2  and  C_3
REMARK    2  A    between atoms: C_2  and  C_5
REMARK                            x       y       z     vdW  Elec       q    Type
REMARK                         _______ _______ _______ _____ _____    ______ ____
ROOT
ATOM      1  C   UNL     1       1.027  -0.043  -0.056  0.00  0.00    +0.015 C 
ATOM      2  C   UNL     1       2.366  -0.060  -0.083  0.00  0.00    -0.018 C 
ATOM      3  C   UNL     1       3.176  -0.754  -1.130  0.00  0.00    +0.046 C 
ENDROOT
BRANCH   2   4
ATOM      4  C   UNL     1       3.101   0.653   0.995  0.00  0.00    +0.253 C 
ATOM      5  O   UNL     1       4.324   0.688   1.050  0.00  0.00    -0.296 OA
ENDBRANCH   2   4
TORSDOF 1
