REMARK  Name = 
REMARK  14 active torsions:
REMARK  status: ('A' for Active; 'I' for Inactive)
REMARK    1  A    between atoms: C_2  and  C_3
REMARK    2  A    between atoms: C_2  and  C_4
REMARK    3  A    between atoms: C_4  and  C_5
REMARK    4  A    between atoms: N_6  and  C_7
REMARK    5  A    between atoms: C_8  and  C_9
REMARK    6  A    between atoms: C_9  and  N_10
REMARK    7  A    between atoms: N_10  and  C_11
REMARK    8  A    between atoms: C_11  and  C_16
REMARK    9  A    between atoms: C_12  and  C_13
REMARK   10  A    between atoms: C_17  and  C_18
REMARK   11  A    between atoms: C_17  and  C_21
REMARK   12  A    between atoms: C_18  and  C_19
REMARK   13  A    between atoms: C_21  and  N_22
REMARK   14  A    between atoms: N_22  and  C_23
REMARK                            x       y       z     vdW  Elec       q    Type
REMARK                         _______ _______ _______ _____ _____    ______ ____
ROOT
ATOM      1  C   UNL     1      11.869  -0.628  -2.229  0.00  0.00    +0.028 C 
ATOM      2  C   UNL     1      12.376  -0.468  -0.986  0.00  0.00    +0.032 C 
ENDROOT
BRANCH   2   3
ATOM      3  C   UNL     1      11.675  -0.287   0.267  0.00  0.00    +0.073 C 
ATOM      4  C   UNL     1      10.453  -0.645   0.504  0.00  0.00    -0.021 C 
ATOM      5  N   UNL     1       9.340  -0.957   0.728  0.00  0.00    -0.258 NA
ATOM      6  H   UNL     1       8.948  -1.458  -0.077  0.00  0.00    +0.197 HD
ENDBRANCH   2   3
BRANCH   1   7
ATOM      7  N   UNL     1      10.513  -0.573  -2.547  0.00  0.00    -0.333 N 
ATOM      8  H   UNL     1      10.319  -1.089  -3.401  0.00  0.00    +0.147 HD
BRANCH   7   9
ATOM      9  C   UNL     1       9.847   0.734  -2.610  0.00  0.00    +0.193 C 
BRANCH   9  11
ATOM     10  C   UNL     1       8.532   1.079  -5.084  0.00  0.00    +0.036 C 
ATOM     11  C   UNL     1       9.139   0.919  -3.942  0.00  0.00    -0.059 C 
BRANCH  10  13
ATOM     12  C   UNL     1       7.262   2.285  -6.492  0.00  0.00    +0.099 C 
ATOM     13  N   UNL     1       7.898   1.182  -6.261  0.00  0.00    -0.209 NA
BRANCH  12  14
ATOM     14  C   UNL     1       6.489   2.477  -7.780  0.00  0.00    +0.078 C 
BRANCH  14  16
ATOM     15  C   UNL     1       6.800   4.488  -9.230  0.00  0.00    +0.008 C 
ATOM     16  C   UNL     1       7.259   3.307  -8.780  0.00  0.00    -0.074 C 
ATOM     17  C   UNL     1       8.532   2.712  -9.318  0.00  0.00    +0.039 C 
ENDBRANCH  14  16
ENDBRANCH  12  14
ENDBRANCH  10  13
ENDBRANCH   9  11
ENDBRANCH   7   9
ENDBRANCH   1   7
BRANCH   1  18
ATOM     18  C   UNL     1      12.819  -0.658  -3.339  0.00  0.00    +0.024 C 
ATOM     19  C   UNL     1      12.947  -1.527  -4.367  0.00  0.00    -0.044 C 
BRANCH  19  20
ATOM     20  C   UNL     1      12.160  -2.801  -4.556  0.00  0.00    +0.103 C 
BRANCH  20  21
ATOM     21  C   UNL     1      13.015  -4.059  -4.487  0.00  0.00    +0.227 C 
ATOM     22  O   UNL     1      14.223  -4.093  -4.271  0.00  0.00    -0.301 OA
ENDBRANCH  20  21
ENDBRANCH  19  20
BRANCH  19  23
ATOM     23  C   UNL     1      13.958  -1.233  -5.460  0.00  0.00    +0.132 C 
BRANCH  23  24
ATOM     24  N   UNL     1      13.241  -0.610  -6.554  0.00  0.00    -0.346 N 
ATOM     25  H   UNL     1      12.356  -0.163  -6.316  0.00  0.00    +0.146 HD
BRANCH  24  26
ATOM     26  C   UNL     1      13.780  -0.229  -7.750  0.00  0.00    +0.060 C 
ATOM     27  C   UNL     1      13.140   0.443  -8.708  0.00  0.00    +0.024 C 
ENDBRANCH  24  26
ENDBRANCH  23  24
ENDBRANCH  19  23
ENDBRANCH   1  18
TORSDOF 13
