REMARK  Name = 
REMARK  0 active torsions:
REMARK  status: ('A' for Active; 'I' for Inactive)
REMARK                            x       y       z     vdW  Elec       q    Type
REMARK                         _______ _______ _______ _____ _____    ______ ____
ROOT
ATOM      1  C   UNL     1       2.231   0.682   0.599  0.00  0.00    -0.069 C 
ATOM      2  C   UNL     1       3.456   0.932   0.820  0.00  0.00    +0.069 C 
ATOM      3  C   UNL     1       3.532  -0.405  -0.364  0.00  0.00    +0.069 C 
ATOM      4  C   UNL     1       2.313  -0.178  -0.163  0.00  0.00    -0.069 C 
ENDROOT
TORSDOF 0
