REMARK  Name = 
REMARK  4 active torsions:
REMARK  status: ('A' for Active; 'I' for Inactive)
REMARK    1  A    between atoms: C_24  and  C_25
REMARK    2  A    between atoms: C_24  and  C_26
REMARK    3  A    between atoms: C_26  and  C_27
REMARK    4  A    between atoms: C_27  and  C_28
REMARK                            x       y       z     vdW  Elec       q    Type
REMARK                         _______ _______ _______ _____ _____    ______ ____
ROOT
ATOM      1  C   UNL     1       2.418  -2.292   5.825  0.00  0.00    -0.026 C 
ATOM      2  C   UNL     1       1.812  -1.142   6.159  0.00  0.00    -0.004 C 
ATOM      3  C   UNL     1       1.863   0.014   5.295  0.00  0.00    +0.003 C 
ATOM      4  C   UNL     1       2.689   0.038   4.237  0.00  0.00    -0.043 C 
ATOM      5  C   UNL     1       3.655  -1.113   3.900  0.00  0.00    +0.034 C 
ATOM      6  C   UNL     1       3.238  -2.438   4.570  0.00  0.00    +0.036 C 
ATOM      7  C   UNL     1       2.391   0.813   3.027  0.00  0.00    +0.008 C 
ATOM      8  C   UNL     1       2.554  -0.091   2.024  0.00  0.00    -0.035 C 
ATOM      9  C   UNL     1       3.601  -1.147   2.335  0.00  0.00    +0.053 C 
ATOM     10  C   UNL     1       1.598  -1.212   1.790  0.00  0.00    -0.033 C 
ATOM     11  C   UNL     1       2.643  -2.116   1.610  0.00  0.00    -0.054 C 
ATOM     12  C   UNL     1       3.121  -3.620   1.414  0.00  0.00    +0.059 C 
ATOM     13  C   UNL     1       2.200  -4.756   1.685  0.00  0.00    -0.022 C 
ATOM     14  C   UNL     1       2.003  -5.398   2.850  0.00  0.00    +0.004 C 
ATOM     15  C   UNL     1       0.640  -5.855   3.115  0.00  0.00    -0.026 C 
ATOM     16  C   UNL     1       0.294  -7.150   3.068  0.00  0.00    +0.017 C 
ATOM     17  C   UNL     1      -0.372  -4.810   3.370  0.00  0.00    -0.022 C 
ATOM     18  C   UNL     1      -1.063  -4.847   4.534  0.00  0.00    +0.017 C 
ATOM     19  C   UNL     1      -0.448  -3.605   2.506  0.00  0.00    -0.034 C 
ATOM     20  C   UNL     1      -0.080  -2.454   3.116  0.00  0.00    -0.010 C 
ATOM     21  C   UNL     1       0.075  -1.222   2.312  0.00  0.00    +0.065 C 
ATOM     22  C   UNL     1      -1.121  -1.120   1.363  0.00  0.00    -0.018 C 
ATOM     23  C   UNL     1      -1.718  -2.243   0.885  0.00  0.00    -0.019 C 
ATOM     24  C   UNL     1      -0.899  -3.532   1.000  0.00  0.00    +0.011 C 
ATOM     25  C   UNL     1       0.099  -3.215  -0.201  0.00  0.00    +0.020 C 
ENDROOT
BRANCH  24  26
ATOM     26  C   UNL     1      -1.565  -4.847   0.544  0.00  0.00    +0.015 C 
BRANCH  26  27
ATOM     27  C   UNL     1      -2.765  -5.363   1.324  0.00  0.00    -0.002 C 
ATOM     28  C   UNL     1      -3.052  -6.795   0.898  0.00  0.00    +0.004 C 
ENDBRANCH  26  27
ENDBRANCH  24  26
TORSDOF 2
