REMARK  Name = 
REMARK  1 active torsions:
REMARK  status: ('A' for Active; 'I' for Inactive)
REMARK    1  A    between atoms: C_5  and  C_6
REMARK                            x       y       z     vdW  Elec       q    Type
REMARK                         _______ _______ _______ _____ _____    ______ ____
ROOT
ATOM      1  C   UNL     1      -1.377   1.064   0.118  0.00  0.00    +0.002 C 
ATOM      2  C   UNL     1      -1.740  -0.220  -0.075  0.00  0.00    -0.022 C 
ATOM      3  C   UNL     1      -0.918  -1.427  -0.469  0.00  0.00    +0.063 C 
ATOM      4  C   UNL     1       0.495  -1.296   0.027  0.00  0.00    -0.035 C 
ATOM      5  C   UNL     1       1.268  -1.734   1.029  0.00  0.00    -0.046 C 
ATOM      6  C   UNL     1       1.057  -2.651   2.204  0.00  0.00    +0.044 C 
ATOM      7  C   UNL     1       2.292  -0.794   0.626  0.00  0.00    +0.009 C 
ATOM      8  C   UNL     1       1.389  -0.208  -0.182  0.00  0.00    -0.019 C 
ATOM      9  C   UNL     1       1.050   1.074  -0.909  0.00  0.00    +0.131 C 
ATOM     10  N   UNL     1       2.240   1.924  -1.036  0.00  0.00    -0.339 N 
ATOM     11  C   UNL     1       2.117   3.315  -0.846  0.00  0.00    +0.068 C 
ATOM     12  C   UNL     1       1.259   3.763   0.087  0.00  0.00    +0.015 C 
ATOM     13  C   UNL     1       0.074   2.993   0.390  0.00  0.00    +0.007 C 
ATOM     14  C   UNL     1      -0.093   1.751  -0.106  0.00  0.00    -0.023 C 
ATOM     15  H   UNL     1       2.921   1.604  -0.348  0.00  0.00    +0.146 HD
ENDROOT
TORSDOF 0
