REMARK  Name = 
REMARK  11 active torsions:
REMARK  status: ('A' for Active; 'I' for Inactive)
REMARK    1  A    between atoms: C_1  and  C_2
REMARK    2  A    between atoms: C_3  and  C_4
REMARK    3  A    between atoms: C_4  and  C_6
REMARK    4  A    between atoms: C_6  and  C_7
REMARK    5  A    between atoms: C_7  and  N_17
REMARK    6  A    between atoms: C_8  and  C_9
REMARK    7  A    between atoms: C_10  and  C_11
REMARK    8  A    between atoms: C_12  and  C_13
REMARK    9  A    between atoms: C_14  and  C_15
REMARK   10  A    between atoms: N_17  and  C_18
REMARK   11  A    between atoms: C_18  and  C_19
REMARK                            x       y       z     vdW  Elec       q    Type
REMARK                         _______ _______ _______ _____ _____    ______ ____
ROOT
ATOM      1  C   UNL     1       7.097  -1.803   1.023  0.00  0.00    +0.012 C 
ATOM      2  C   UNL     1       7.546  -0.773   0.280  0.00  0.00    +0.019 C 
ENDROOT
BRANCH   2   3
ATOM      3  C   UNL     1       6.792   0.346  -0.219  0.00  0.00    +0.001 C 
ATOM      4  C   UNL     1       6.950   0.919  -1.422  0.00  0.00    +0.000 C 
BRANCH   4   5
ATOM      5  C   UNL     1       6.252   2.144  -1.741  0.00  0.00    +0.000 C 
ATOM      6  C   UNL     1       6.252   2.761  -2.934  0.00  0.00    -0.000 C 
BRANCH   6   7
ATOM      7  C   UNL     1       5.533   4.001  -3.139  0.00  0.00    -0.000 C 
ATOM      8  C   UNL     1       5.488   4.628  -4.324  0.00  0.00    -0.001 C 
BRANCH   8   9
ATOM      9  C   UNL     1       4.771   5.861  -4.549  0.00  0.00    -0.008 C 
ATOM     10  C   UNL     1       4.743   6.459  -5.747  0.00  0.00    +0.008 C 
ENDBRANCH   8   9
ENDBRANCH   6   7
ENDBRANCH   4   5
ENDBRANCH   2   3
BRANCH   1  11
ATOM     11  N   UNL     1       8.058  -2.668   1.559  0.00  0.00    -0.343 N 
ATOM     12  H   UNL     1       7.880  -2.814   2.557  0.00  0.00    +0.146 HD
BRANCH  11  13
ATOM     13  C   UNL     1       8.397  -3.940   0.925  0.00  0.00    +0.140 C 
BRANCH  13  14
ATOM     14  C   UNL     1       9.879  -4.035   0.882  0.00  0.00    +0.087 C 
ATOM     15  C   UNL     1      10.542  -5.152   0.842  0.00  0.00    +0.121 C 
ATOM     16  O   UNL     1      11.133  -6.163   0.794  0.00  0.00    -0.232 OA
ENDBRANCH  13  14
ENDBRANCH  11  13
ENDBRANCH   1  11
BRANCH   1  17
ATOM     17  C   UNL     1       5.633  -2.173   1.236  0.00  0.00    +0.129 C 
BRANCH  17  18
ATOM     18  C   UNL     1       4.720  -1.191   1.977  0.00  0.00    +0.161 C 
ATOM     19  O   UNL     1       4.898  -0.899   3.159  0.00  0.00    -0.292 OA
BRANCH  18  22
ATOM     20  C   UNL     1       2.220   0.003  -0.792  0.00  0.00    +0.035 C 
ATOM     21  C   UNL     1       3.388  -0.555  -0.044  0.00  0.00    -0.027 C 
ATOM     22  C   UNL     1       3.501  -0.640   1.290  0.00  0.00    +0.042 C 
ENDBRANCH  18  22
ENDBRANCH  17  18
ENDBRANCH   1  17
TORSDOF 10
