REMARK  Name = 
REMARK  17 active torsions:
REMARK  status: ('A' for Active; 'I' for Inactive)
REMARK    1  A    between atoms: C_9  and  C_10
REMARK    2  A    between atoms: C_11  and  C_12
REMARK    3  A    between atoms: C_11  and  C_18
REMARK    4  A    between atoms: C_12  and  C_13
REMARK    5  A    between atoms: C_12  and  C_14
REMARK    6  A    between atoms: C_14  and  C_15
REMARK    7  A    between atoms: C_15  and  C_16
REMARK    8  A    between atoms: C_16  and  O_17
REMARK    9  A    between atoms: C_19  and  C_20
REMARK   10  A    between atoms: C_21  and  N_22
REMARK   11  A    between atoms: C_23  and  C_24
REMARK   12  A    between atoms: C_24  and  C_25
REMARK   13  A    between atoms: C_25  and  C_26
REMARK   14  A    between atoms: C_26  and  C_27
REMARK   15  A    between atoms: C_28  and  C_29
REMARK   16  A    between atoms: C_29  and  C_30
REMARK   17  A    between atoms: C_32  and  C_33
REMARK                            x       y       z     vdW  Elec       q    Type
REMARK                         _______ _______ _______ _____ _____    ______ ____
ROOT
ATOM      1  C   UNL     1      -4.863   5.989   0.956  0.00  0.00    +0.013 C 
ATOM      2  C   UNL     1      -4.261   6.441  -0.172  0.00  0.00    -0.044 C 
ENDROOT
BRANCH   1  11
ATOM      3  C   UNL     1      -7.935   4.251   5.273  0.00  0.00    +0.085 C 
ATOM      4  C   UNL     1      -8.575   3.535   6.469  0.00  0.00    +0.233 C 
ATOM      5  O   UNL     1      -8.994   2.182   6.289  0.00  0.00    -0.499 OA
ATOM      6  C   UNL     1      -8.366   1.472   5.308  0.00  0.00    +0.188 C 
ATOM      7  C   UNL     1      -7.554   1.961   4.366  0.00  0.00    +0.050 C 
ATOM      8  C   UNL     1      -7.235   3.367   4.275  0.00  0.00    +0.009 C 
ATOM      9  C   UNL     1      -6.556   3.838   3.264  0.00  0.00    -0.066 C 
ATOM     10  C   UNL     1      -5.962   4.267   2.302  0.00  0.00    -0.069 C 
ATOM     11  C   UNL     1      -5.351   4.642   1.204  0.00  0.00    +0.060 C 
ENDBRANCH   1  11
BRANCH   2  12
ATOM     12  C   UNL     1      -3.928   5.563  -1.395  0.00  0.00    +0.016 C 
ATOM     13  C   UNL     1      -5.134   5.537  -2.355  0.00  0.00    +0.012 C 
BRANCH  12  14
ATOM     14  C   UNL     1      -2.692   5.945  -2.252  0.00  0.00    +0.010 C 
BRANCH  14  15
ATOM     15  C   UNL     1      -1.328   5.896  -1.565  0.00  0.00    +0.028 C 
BRANCH  15  16
ATOM     16  C   UNL     1      -0.250   6.346  -2.553  0.00  0.00    +0.156 C 
BRANCH  16  17
ATOM     17  O   UNL     1       1.026   6.337  -1.933  0.00  0.00    -0.395 OA
ATOM     18  H   UNL     1       1.002   6.983  -1.206  0.00  0.00    +0.209 HD
ENDBRANCH  16  17
ENDBRANCH  15  16
ENDBRANCH  14  15
ENDBRANCH  12  14
ENDBRANCH   2  12
BRANCH   2  19
ATOM     19  C   UNL     1      -3.879   7.855  -0.276  0.00  0.00    +0.004 C 
ATOM     20  C   UNL     1      -4.717   8.902  -0.191  0.00  0.00    +0.002 C 
BRANCH  20  21
ATOM     21  C   UNL     1      -4.281  10.276  -0.374  0.00  0.00    +0.020 C 
ATOM     22  C   UNL     1      -5.101  11.336  -0.294  0.00  0.00    +0.110 C 
BRANCH  22  23
ATOM     23  N   UNL     1      -4.656  12.622  -0.483  0.00  0.00    -0.268 NA
ATOM     24  C   UNL     1      -5.548  13.557  -0.381  0.00  0.00    +0.083 C 
BRANCH  24  25
ATOM     25  C   UNL     1      -5.169  15.013  -0.529  0.00  0.00    +0.047 C 
BRANCH  25  26
ATOM     26  C   UNL     1      -5.947  15.688  -1.664  0.00  0.00    +0.010 C 
BRANCH  26  27
ATOM     27  C   UNL     1      -5.563  17.170  -1.790  0.00  0.00    +0.027 C 
BRANCH  27  28
ATOM     28  C   UNL     1      -6.343  17.915  -2.847  0.00  0.00    -0.031 C 
ATOM     29  C   UNL     1      -7.113  18.985  -2.573  0.00  0.00    -0.031 C 
BRANCH  29  30
ATOM     30  C   UNL     1      -7.884  19.807  -3.576  0.00  0.00    +0.030 C 
BRANCH  30  31
ATOM     31  C   UNL     1      -9.374  19.681  -3.428  0.00  0.00    -0.004 C 
ATOM     32  C   UNL     1     -10.276  20.557  -4.266  0.00  0.00    +0.007 C 
ATOM     33  C   UNL     1     -10.309  20.684  -2.766  0.00  0.00    -0.010 C 
ATOM     34  C   UNL     1      -9.910  21.975  -2.140  0.00  0.00    +0.008 C 
ENDBRANCH  30  31
ENDBRANCH  29  30
ENDBRANCH  27  28
ENDBRANCH  26  27
ENDBRANCH  25  26
ENDBRANCH  24  25
ENDBRANCH  22  23
ENDBRANCH  20  21
ENDBRANCH   2  19
TORSDOF 15
