REMARK  Name = 
REMARK  8 active torsions:
REMARK  status: ('A' for Active; 'I' for Inactive)
REMARK    1  A    between atoms: C_2  and  C_3
REMARK    2  A    between atoms: C_5  and  C_6
REMARK    3  A    between atoms: N_8  and  C_9
REMARK    4  A    between atoms: C_10  and  C_11
REMARK    5  A    between atoms: C_11  and  C_14
REMARK    6  A    between atoms: N_12  and  C_13
REMARK    7  A    between atoms: C_14  and  C_16
REMARK    8  A    between atoms: C_16  and  C_17
REMARK                            x       y       z     vdW  Elec       q    Type
REMARK                         _______ _______ _______ _____ _____    ______ ____
ROOT
ATOM      1  C   UNL     1       3.065  -1.164   0.720  0.00  0.00    +0.140 C 
ATOM      2  C   UNL     1       2.533  -2.579   0.633  0.00  0.00    +0.021 C 
ATOM      3  C   UNL     1       3.491  -3.408   0.191  0.00  0.00    +0.017 C 
ATOM      4  C   UNL     1       3.412  -4.882   0.029  0.00  0.00    +0.062 C 
ATOM      5  N   UNL     1       4.640  -2.688  -0.098  0.00  0.00    -0.268 N 
ATOM      6  N   UNL     1       4.463  -1.347   0.220  0.00  0.00    -0.250 N 
ATOM      7  H   UNL     1       5.481  -3.127   0.282  0.00  0.00    +0.170 HD
ENDROOT
BRANCH   1   9
ATOM      8  C   UNL     1       1.624   0.853   0.252  0.00  0.00    +0.006 C 
ATOM      9  C   UNL     1       2.293  -0.229  -0.173  0.00  0.00    -0.007 C 
ENDBRANCH   1   9
BRANCH   6  10
ATOM     10  C   UNL     1       5.318  -0.311  -0.115  0.00  0.00    +0.094 C 
ATOM     11  C   UNL     1       6.432  -0.379  -0.853  0.00  0.00    +0.041 C 
BRANCH  11  12
ATOM     12  C   UNL     1       7.281   0.803  -1.224  0.00  0.00    +0.054 C 
ATOM     13  N   UNL     1       6.900   1.977  -1.590  0.00  0.00    -0.290 NA
ATOM     14  C   UNL     1       5.507   2.341  -1.749  0.00  0.00    +0.170 C 
BRANCH  12  15
ATOM     15  C   UNL     1       8.808   0.582  -1.248  0.00  0.00    +0.128 C 
ATOM     16 CL   UNL     1       9.347   0.226   0.422  0.00  0.00    -0.115 Cl
BRANCH  15  17
ATOM     17  C   UNL     1       9.281  -0.520  -2.200  0.00  0.00    +0.022 C 
ATOM     18  C   UNL     1       8.890  -0.266  -3.650  0.00  0.00    +0.005 C 
ENDBRANCH  15  17
ENDBRANCH  12  15
ENDBRANCH  11  12
ENDBRANCH   6  10
TORSDOF 5
