REMARK  Name = 
REMARK  15 active torsions:
REMARK  status: ('A' for Active; 'I' for Inactive)
REMARK    1  A    between atoms: C_1  and  C_2
REMARK    2  A    between atoms: N_6  and  C_12
REMARK    3  A    between atoms: C_7  and  C_8
REMARK    4  A    between atoms: C_8  and  C_9
REMARK    5  A    between atoms: C_9  and  C_10
REMARK    6  A    between atoms: C_12  and  N_13
REMARK    7  A    between atoms: N_13  and  C_14
REMARK    8  A    between atoms: C_15  and  C_16
REMARK    9  A    between atoms: C_16  and  C_18
REMARK   10  A    between atoms: C_19  and  C_20
REMARK   11  A    between atoms: C_21  and  N_22
REMARK   12  A    between atoms: N_22  and  C_23
REMARK   13  A    between atoms: C_24  and  C_25
REMARK   14  A    between atoms: C_27  and  C_28
REMARK   15  A    between atoms: C_29  and  C_30
REMARK                            x       y       z     vdW  Elec       q    Type
REMARK                         _______ _______ _______ _____ _____    ______ ____
ROOT
ATOM      1  C   UNL     1       3.057  -6.557  -5.942  0.00  0.00    +0.056 C 
ATOM      2  N   UNL     1       3.231  -7.611  -5.214  0.00  0.00    -0.300 NA
ATOM      3  H   UNL     1       3.058  -7.412  -4.225  0.00  0.00    +0.187 HD
ENDROOT
BRANCH   1   5
ATOM      4  C   UNL     1       3.086  -4.830  -4.185  0.00  0.00    +0.070 C 
ATOM      5  C   UNL     1       2.674  -5.226  -5.396  0.00  0.00    +0.042 C 
BRANCH   4   6
ATOM      6  N   UNL     1       2.777  -3.640  -3.575  0.00  0.00    -0.337 N 
ATOM      7  H   UNL     1       2.014  -3.117  -3.997  0.00  0.00    +0.147 HD
BRANCH   6   8
ATOM      8  C   UNL     1       3.045  -3.297  -2.194  0.00  0.00    +0.189 C 
BRANCH   8  14
ATOM      9  C   UNL     1       1.785   0.536  -0.130  0.00  0.00    +0.039 C 
ATOM     10  C   UNL     1       1.226   0.029  -1.463  0.00  0.00    +0.132 C 
ATOM     11  O   UNL     1      -0.077  -0.554  -1.258  0.00  0.00    -0.374 OA
ATOM     12  C   UNL     1      -0.007  -1.811  -0.584  0.00  0.00    +0.175 C 
ATOM     13  C   UNL     1       0.895  -2.785  -1.336  0.00  0.00    +0.114 C 
ATOM     14  N   UNL     1       2.265  -2.252  -1.540  0.00  0.00    -0.279 NA
ATOM     15  C   UNL     1       2.176  -0.948  -2.260  0.00  0.00    +0.087 C 
BRANCH  15  16
ATOM     16  C   UNL     1       3.520  -0.212  -2.552  0.00  0.00    +0.029 C 
BRANCH  16  17
ATOM     17  C   UNL     1       4.496  -0.822  -3.559  0.00  0.00    +0.072 C 
BRANCH  17  18
ATOM     18  C   UNL     1       3.869  -1.179  -4.880  0.00  0.00    +0.223 C 
ATOM     19  O   UNL     1       2.962  -0.539  -5.402  0.00  0.00    -0.301 OA
ENDBRANCH  17  18
ENDBRANCH  16  17
ENDBRANCH  15  16
ENDBRANCH   8  14
ENDBRANCH   6   8
ENDBRANCH   4   6
ENDBRANCH   1   5
BRANCH   1  20
ATOM     20  C   UNL     1       3.173  -6.594  -7.430  0.00  0.00    +0.027 C 
ATOM     21  C   UNL     1       3.495  -7.741  -8.049  0.00  0.00    +0.003 C 
BRANCH  21  22
ATOM     22  C   UNL     1       3.639  -7.871  -9.485  0.00  0.00    +0.015 C 
ATOM     23  C   UNL     1       3.968  -9.023 -10.089  0.00  0.00    +0.071 C 
BRANCH  23  24
ATOM     24  N   UNL     1       4.128  -9.225 -11.439  0.00  0.00    -0.326 N 
ATOM     25  H   UNL     1       3.980  -8.411 -12.028  0.00  0.00    +0.151 HD
BRANCH  24  26
ATOM     26  C   UNL     1       4.462 -10.385 -12.098  0.00  0.00    +0.072 C 
ATOM     27  C   UNL     1       4.607 -10.533 -13.425  0.00  0.00    +0.023 C 
BRANCH  27  28
ATOM     28  C   UNL     1       4.957 -11.782 -14.060  0.00  0.00    +0.052 C 
ATOM     29  C   UNL     1       5.104 -11.891 -15.354  0.00  0.00    -0.120 C 
ATOM     30  C   UNL     1       5.268 -12.042 -16.635  0.00  0.00    +0.051 C 
BRANCH  30  31
ATOM     31  C   UNL     1       4.657 -11.156 -17.596  0.00  0.00    +0.009 C 
ATOM     32  C   UNL     1       4.798 -11.291 -18.923  0.00  0.00    +0.009 C 
BRANCH  32  33
ATOM     33  C   UNL     1       4.181 -10.394 -19.871  0.00  0.00    +0.051 C 
ATOM     34  C   UNL     1       4.329 -10.529 -21.158  0.00  0.00    -0.128 C 
ATOM     35  C   UNL     1       4.456 -10.634 -22.443  0.00  0.00    +0.068 C 
ENDBRANCH  32  33
ENDBRANCH  30  31
ENDBRANCH  27  28
ENDBRANCH  24  26
ENDBRANCH  23  24
ENDBRANCH  21  22
ENDBRANCH   1  20
TORSDOF 14
