REMARK  Name = 
REMARK  2 active torsions:
REMARK  status: ('A' for Active; 'I' for Inactive)
REMARK    1  A    between atoms: C_8  and  C_11
REMARK    2  A    between atoms: N_9  and  C_10
REMARK                            x       y       z     vdW  Elec       q    Type
REMARK                         _______ _______ _______ _____ _____    ______ ____
ROOT
ATOM      1  C   UNL     1       3.560  -2.042   2.362  0.00  0.00    +0.133 C 
ATOM      2  C   UNL     1       5.061  -2.139   2.966  0.00  0.00    +0.001 C 
ATOM      3  C   UNL     1       5.802  -1.318   3.852  0.00  0.00    +0.057 C 
ATOM      4  C   UNL     1       7.280  -0.727   3.571  0.00  0.00    -0.069 C 
ATOM      5  C   UNL     1       6.628  -0.448   2.477  0.00  0.00    -0.061 C 
ATOM      6  C   UNL     1       5.868  -0.123   1.201  0.00  0.00    +0.113 C 
ATOM      7  C   UNL     1       4.788   0.546   1.470  0.00  0.00    -0.079 C 
ATOM      8  C   UNL     1       3.572   0.419   1.825  0.00  0.00    +0.125 C 
ATOM      9  N   UNL     1       3.131  -0.856   1.494  0.00  0.00    -0.316 N 
ATOM     10  C   UNL     1       2.976  -1.021   0.018  0.00  0.00    +0.131 C 
ENDROOT
BRANCH   8  11
ATOM     11  C   UNL     1       3.088   0.875   3.070  0.00  0.00    -0.046 C 
ATOM     12  C   UNL     1       2.537   1.042   4.126  0.00  0.00    +0.011 C 
ENDBRANCH   8  11
TORSDOF 1
