REMARK  Name = 
REMARK  6 active torsions:
REMARK  status: ('A' for Active; 'I' for Inactive)
REMARK    1  A    between atoms: C_2  and  C_3
REMARK    2  A    between atoms: C_4  and  C_5
REMARK    3  A    between atoms: C_5  and  C_6
REMARK    4  A    between atoms: N_7  and  C_8
REMARK    5  A    between atoms: C_9  and  C_10
REMARK    6  A    between atoms: C_9  and  C_12
REMARK                            x       y       z     vdW  Elec       q    Type
REMARK                         _______ _______ _______ _____ _____    ______ ____
ROOT
ATOM      1  C   UNL     1       6.707  -1.832  -1.452  0.00  0.00    +0.087 C 
ATOM      2  N   UNL     1       7.487  -2.608  -2.132  0.00  0.00    -0.266 NA
ENDROOT
BRANCH   2   3
ATOM      3  C   UNL     1       8.845  -2.458  -1.978  0.00  0.00    +0.128 C 
ATOM      4  C   UNL     1       9.733  -3.246  -2.613  0.00  0.00    +0.060 C 
BRANCH   4   5
ATOM      5  C   UNL     1      11.183  -2.981  -2.403  0.00  0.00    +0.119 C 
ATOM      6  N   UNL     1      12.168  -3.632  -2.932  0.00  0.00    -0.306 NA
ATOM      7  H   UNL     1      11.819  -4.385  -3.539  0.00  0.00    +0.186 HD
ENDBRANCH   4   5
BRANCH   4   8
ATOM      8  C   UNL     1       9.314  -4.308  -3.473  0.00  0.00    -0.067 C 
ATOM      9  C   UNL     1       8.951  -5.197  -4.190  0.00  0.00    +0.009 C 
ENDBRANCH   4   8
ENDBRANCH   2   3
BRANCH   1  10
ATOM     10  C   UNL     1       5.207  -1.952  -1.610  0.00  0.00    +0.074 C 
BRANCH  10  12
ATOM     11  C   UNL     1       3.701  -2.502   0.317  0.00  0.00    -0.004 C 
ATOM     12  C   UNL     1       4.648  -2.868  -0.561  0.00  0.00    -0.021 C 
BRANCH  11  14
ATOM     13  C   UNL     1       2.185  -3.031   2.158  0.00  0.00    +0.008 C 
ATOM     14  C   UNL     1       3.132  -3.406   1.288  0.00  0.00    -0.008 C 
ENDBRANCH  11  14
ENDBRANCH  10  12
ENDBRANCH   1  10
TORSDOF 6
