REMARK  Name = 
REMARK  1 active torsions:
REMARK  status: ('A' for Active; 'I' for Inactive)
REMARK    1  A    between atoms: C_1  and  C_2
REMARK                            x       y       z     vdW  Elec       q    Type
REMARK                         _______ _______ _______ _____ _____    ______ ____
ROOT
ATOM      1  C   UNL     1       2.335   0.659   0.749  0.00  0.00    +0.013 C 
ATOM      2  C   UNL     1       3.584  -0.194   0.613  0.00  0.00    +0.022 C 
ATOM      3  C   UNL     1       4.653  -0.016   1.720  0.00  0.00    +0.028 C 
ATOM      4  C   UNL     1       3.226  -1.702   0.531  0.00  0.00    +0.063 C 
ATOM      5  C   UNL     1       4.556  -2.426   0.298  0.00  0.00    +0.041 C 
ATOM      6  N   UNL     1       4.877  -2.912  -0.856  0.00  0.00    -0.303 NA
ATOM      7  C   UNL     1       5.537  -2.277   1.423  0.00  0.00    +0.073 C 
ATOM      8  C   UNL     1       5.386  -1.086   1.909  0.00  0.00    -0.122 C 
ATOM      9  H   UNL     1       4.122  -2.742  -1.532  0.00  0.00    +0.186 HD
ENDROOT
TORSDOF 0
