REMARK  Name = 
REMARK  3 active torsions:
REMARK  status: ('A' for Active; 'I' for Inactive)
REMARK    1  A    between atoms: C_1  and  C_2
REMARK    2  A    between atoms: C_2  and  O_3
REMARK    3  A    between atoms: O_3  and  C_4
REMARK                            x       y       z     vdW  Elec       q    Type
REMARK                         _______ _______ _______ _____ _____    ______ ____
ROOT
ATOM      1  C   UNL     1       4.307  -1.489   1.287  0.00  0.00    +0.187 C 
ATOM      2  C   UNL     1       4.953  -2.636   1.535  0.00  0.00    -0.020 C 
ATOM      3  C   UNL     1       5.929  -2.892   2.623  0.00  0.00    +0.054 C 
ATOM      4  C   UNL     1       6.387  -2.849   1.252  0.00  0.00    +0.035 C 
ATOM      5  C   UNL     1       7.252  -1.791   0.713  0.00  0.00    -0.011 C 
ATOM      6  C   UNL     1       7.974  -2.246  -0.333  0.00  0.00    -0.003 C 
ATOM      7  C   UNL     1       7.645  -3.645  -0.524  0.00  0.00    -0.003 C 
ATOM      8  C   UNL     1       6.737  -3.995   0.410  0.00  0.00    -0.011 C 
ENDROOT
BRANCH   1   9
ATOM      9  O   UNL     1       2.985  -1.460   0.929  0.00  0.00    -0.500 OA
BRANCH   9  11
ATOM     10  C   UNL     1       0.933  -0.226   0.857  0.00  0.00    +0.048 C 
ATOM     11  C   UNL     1       2.403  -0.187   1.218  0.00  0.00    +0.225 C 
ENDBRANCH   9  11
ENDBRANCH   1   9
TORSDOF 2
