REMARK  Name = 
REMARK  17 active torsions:
REMARK  status: ('A' for Active; 'I' for Inactive)
REMARK    1  A    between atoms: C_1  and  C_2
REMARK    2  A    between atoms: C_2  and  C_3
REMARK    3  A    between atoms: C_2  and  C_4
REMARK    4  A    between atoms: C_4  and  C_14
REMARK    5  A    between atoms: C_6  and  N_7
REMARK    6  A    between atoms: N_7  and  C_8
REMARK    7  A    between atoms: C_9  and  N_10
REMARK    8  A    between atoms: N_10  and  C_11
REMARK    9  A    between atoms: C_12  and  C_13
REMARK   10  A    between atoms: C_14  and  C_15
REMARK   11  A    between atoms: C_17  and  C_18
REMARK   12  A    between atoms: C_21  and  C_22
REMARK   13  A    between atoms: C_29  and  C_30
REMARK   14  A    between atoms: C_30  and  N_31
REMARK   15  A    between atoms: C_30  and  C_32
REMARK   16  A    between atoms: C_32  and  C_33
REMARK   17  A    between atoms: C_33  and  C_34
REMARK                            x       y       z     vdW  Elec       q    Type
REMARK                         _______ _______ _______ _____ _____    ______ ____
ROOT
ATOM      1  C   UNL     1       3.227  -2.431   4.297  0.00  0.00    -0.018 C 
ATOM      2  C   UNL     1       3.215  -3.640   4.952  0.00  0.00    -0.042 C 
ATOM      3  C   UNL     1       1.917  -3.994   6.050  0.00  0.00    +0.016 C 
ATOM      4  C   UNL     1       2.305  -4.832   7.287  0.00  0.00    +0.012 C 
ATOM      5  C   UNL     1       0.580  -4.601   5.404  0.00  0.00    +0.008 C 
ATOM      6  C   UNL     1      -0.926  -4.945   5.865  0.00  0.00    +0.008 C 
ATOM      7  C   UNL     1      -1.874  -5.465   4.629  0.00  0.00    +0.008 C 
ATOM      8  C   UNL     1      -3.252  -4.792   4.481  0.00  0.00    +0.012 C 
ATOM      9  C   UNL     1      -1.145  -5.319   3.310  0.00  0.00    -0.028 C 
ATOM     10  C   UNL     1      -0.170  -6.194   3.008  0.00  0.00    -0.029 C 
ATOM     11  C   UNL     1       1.166  -5.690   2.525  0.00  0.00    +0.045 C 
ATOM     12  C   UNL     1       2.288  -6.488   3.217  0.00  0.00    +0.105 C 
ATOM     13  N   UNL     1       3.561  -5.833   3.014  0.00  0.00    -0.349 N 
ATOM     14  C   UNL     1       4.406  -5.641   4.094  0.00  0.00    +0.073 C 
ATOM     15  C   UNL     1       4.472  -4.519   4.854  0.00  0.00    -0.014 C 
ATOM     16  H   UNL     1       3.392  -4.900   2.630  0.00  0.00    +0.146 HD
ENDROOT
BRANCH   1  17
ATOM     17  C   UNL     1       3.520  -1.935   2.799  0.00  0.00    +0.067 C 
BRANCH  17  18
ATOM     18  C   UNL     1       2.377  -1.179   2.084  0.00  0.00    -0.020 C 
ATOM     19  C   UNL     1       1.485  -0.549   2.835  0.00  0.00    -0.105 C 
ATOM     20  C   UNL     1       0.840   0.240   3.638  0.00  0.00    +0.124 C 
BRANCH  18  22
ATOM     21  C   UNL     1       1.849  -1.715  -0.335  0.00  0.00    +0.012 C 
ATOM     22  C   UNL     1       2.511  -0.710   0.610  0.00  0.00    +0.017 C 
ATOM     23  C   UNL     1       1.885   0.690   0.263  0.00  0.00    +0.012 C 
ENDBRANCH  18  22
BRANCH  20  24
ATOM     24  N   UNL     1       1.568   1.078   4.384  0.00  0.00    -0.319 N 
ATOM     25  H   UNL     1       2.582   0.912   4.337  0.00  0.00    +0.152 HD
BRANCH  24  26
ATOM     26  C   UNL     1       1.186   2.050   5.268  0.00  0.00    +0.087 C 
ATOM     27  C   UNL     1      -0.008   2.607   5.454  0.00  0.00    +0.087 C 
BRANCH  27  28
ATOM     28  N   UNL     1      -0.230   3.543   6.417  0.00  0.00    -0.326 N 
ATOM     29  H   UNL     1       0.576   3.751   6.994  0.00  0.00    +0.151 HD
BRANCH  28  30
ATOM     30  C   UNL     1      -1.396   4.128   6.816  0.00  0.00    +0.067 C 
ATOM     31  C   UNL     1      -1.479   4.924   7.888  0.00  0.00    -0.015 C 
ATOM     32  C   UNL     1      -2.720   5.576   8.386  0.00  0.00    +0.036 C 
ENDBRANCH  28  30
ENDBRANCH  27  28
ENDBRANCH  24  26
ENDBRANCH  20  24
ENDBRANCH  17  18
ENDBRANCH   1  17
BRANCH  15  33
ATOM     33  C   UNL     1       6.002  -4.098   4.971  0.00  0.00    +0.083 C 
BRANCH  33  34
ATOM     34  N   UNL     1       6.494  -3.718   3.609  0.00  0.00    -0.324 NA
ATOM     35  H   UNL     1       6.794  -2.747   3.587  0.00  0.00    +0.119 HD
ATOM     36  H   UNL     1       7.331  -4.267   3.404  0.00  0.00    +0.119 HD
ENDBRANCH  33  34
BRANCH  33  37
ATOM     37  C   UNL     1       6.617  -3.068   5.945  0.00  0.00    +0.023 C 
BRANCH  37  38
ATOM     38  C   UNL     1       6.821  -3.531   7.389  0.00  0.00    -0.002 C 
ATOM     39  C   UNL     1       7.785  -4.706   7.548  0.00  0.00    +0.004 C 
ENDBRANCH  37  38
ENDBRANCH  33  37
ENDBRANCH  15  33
TORSDOF 11
