REMARK  Name = 
REMARK  3 active torsions:
REMARK  status: ('A' for Active; 'I' for Inactive)
REMARK    1  A    between atoms: C_9  and  C_10
REMARK    2  A    between atoms: C_11  and  O_12
REMARK    3  A    between atoms: O_12  and  C_13
REMARK                            x       y       z     vdW  Elec       q    Type
REMARK                         _______ _______ _______ _____ _____    ______ ____
ROOT
ATOM      1  C   UNL     1       1.922  -0.754  -0.794  0.00  0.00    +0.015 C 
ATOM      2  C   UNL     1       3.067  -1.216  -1.749  0.00  0.00    +0.002 C 
ATOM      3  C   UNL     1       3.796   0.076  -1.338  0.00  0.00    +0.015 C 
ATOM      4  C   UNL     1       3.032   0.000   0.049  0.00  0.00    +0.014 C 
ATOM      5  C   UNL     1       3.639  -0.982   1.039  0.00  0.00    -0.019 C 
ATOM      6  C   UNL     1       3.736  -0.716   2.347  0.00  0.00    -0.026 C 
ATOM      7  C   UNL     1       3.360   0.583   2.962  0.00  0.00    +0.054 C 
ATOM      8  C   UNL     1       2.851   1.581   1.969  0.00  0.00    -0.018 C 
ATOM      9  C   UNL     1       2.661   1.365   0.647  0.00  0.00    -0.038 C 
ENDROOT
BRANCH   9  10
ATOM     10  C   UNL     1       2.370   2.510  -0.206  0.00  0.00    +0.041 C 
ATOM     11  C   UNL     1       1.535   3.522   0.065  0.00  0.00    +0.187 C 
BRANCH  11  12
ATOM     12  O   UNL     1       1.441   4.594  -0.785  0.00  0.00    -0.503 OA
ATOM     13  C   UNL     1       0.639   5.654  -0.275  0.00  0.00    +0.276 C 
ENDBRANCH  11  12
ENDBRANCH   9  10
TORSDOF 2
