REMARK  Name = 
REMARK  16 active torsions:
REMARK  status: ('A' for Active; 'I' for Inactive)
REMARK    1  A    between atoms: C_2  and  C_3
REMARK    2  A    between atoms: N_4  and  C_5
REMARK    3  A    between atoms: C_5  and  C_6
REMARK    4  A    between atoms: C_6  and  C_7
REMARK    5  A    between atoms: C_7  and  C_8
REMARK    6  A    between atoms: C_9  and  C_10
REMARK    7  A    between atoms: C_10  and  N_11
REMARK    8  A    between atoms: N_11  and  C_12
REMARK    9  A    between atoms: C_13  and  C_14
REMARK   10  A    between atoms: C_15  and  C_16
REMARK   11  A    between atoms: C_17  and  C_18
REMARK   12  A    between atoms: C_17  and  C_21
REMARK   13  A    between atoms: C_19  and  C_20
REMARK   14  A    between atoms: C_21  and  N_22
REMARK   15  A    between atoms: N_22  and  C_23
REMARK   16  A    between atoms: C_27  and  N_28
REMARK                            x       y       z     vdW  Elec       q    Type
REMARK                         _______ _______ _______ _____ _____    ______ ____
ROOT
ATOM      1  C   UNL     1     -11.964  -2.500  -4.677  0.00  0.00    +0.001 C 
ATOM      2  C   UNL     1     -12.622  -2.865  -5.785  0.00  0.00    +0.000 C 
ENDROOT
BRANCH   1   4
ATOM      3  C   UNL     1      -9.751  -2.040  -3.660  0.00  0.00    +0.067 C 
ATOM      4  C   UNL     1     -10.517  -2.397  -4.696  0.00  0.00    +0.015 C 
BRANCH   3   5
ATOM      5  N   UNL     1      -8.380  -2.031  -3.630  0.00  0.00    -0.346 N 
ATOM      6  H   UNL     1      -7.916  -1.165  -3.889  0.00  0.00    +0.146 HD
BRANCH   5   7
ATOM      7  C   UNL     1      -7.549  -3.180  -3.350  0.00  0.00    +0.128 C 
BRANCH   7   9
ATOM      8  C   UNL     1      -5.302  -2.911  -2.272  0.00  0.00    -0.029 C 
ATOM      9  C   UNL     1      -6.642  -2.841  -2.204  0.00  0.00    -0.013 C 
BRANCH   8  10
ATOM     10  C   UNL     1      -4.361  -2.615  -1.137  0.00  0.00    +0.028 C 
BRANCH  10  11
ATOM     11  C   UNL     1      -3.419  -1.462  -1.492  0.00  0.00    +0.019 C 
BRANCH  11  12
ATOM     12  C   UNL     1      -2.445  -1.148  -0.351  0.00  0.00    +0.085 C 
BRANCH  12  16
ATOM     13  C   UNL     1      -0.189  -0.400  -0.983  0.00  0.00    +0.103 C 
ATOM     14  C   UNL     1      -0.611   0.361   0.248  0.00  0.00    +0.068 C 
ATOM     15  C   UNL     1      -0.269   1.805   0.388  0.00  0.00    +0.025 C 
ATOM     16  N   UNL     1      -1.588  -0.030  -0.764  0.00  0.00    -0.297 NA
ENDBRANCH  12  16
ENDBRANCH  11  12
ENDBRANCH  10  11
ENDBRANCH   8  10
ENDBRANCH   7   9
ENDBRANCH   5   7
ENDBRANCH   3   5
ENDBRANCH   1   4
BRANCH   2  17
ATOM     17  C   UNL     1     -14.043  -3.054  -5.955  0.00  0.00    +0.005 C 
ATOM     18  C   UNL     1     -14.881  -3.964  -5.397  0.00  0.00    -0.034 C 
BRANCH  18  19
ATOM     19  C   UNL     1     -14.452  -4.964  -4.419  0.00  0.00    +0.000 C 
ATOM     20  C   UNL     1     -15.233  -5.892  -3.823  0.00  0.00    -0.030 C 
ATOM     21  C   UNL     1     -14.761  -6.893  -2.820  0.00  0.00    +0.035 C 
ENDBRANCH  18  19
BRANCH  18  22
ATOM     22  C   UNL     1     -16.303  -4.032  -5.956  0.00  0.00    +0.116 C 
BRANCH  22  23
ATOM     23  N   UNL     1     -17.242  -3.158  -5.251  0.00  0.00    -0.305 NA
ATOM     24  H   UNL     1     -16.907  -2.194  -5.302  0.00  0.00    +0.123 HD
BRANCH  23  25
ATOM     25  C   UNL     1     -18.614  -3.196  -5.816  0.00  0.00    +0.105 C 
ATOM     26  C   UNL     1     -18.725  -2.773  -7.296  0.00  0.00    +0.162 C 
ATOM     27  N   UNL     1     -19.023  -1.327  -7.319  0.00  0.00    -0.292 NA
ATOM     28  C   UNL     1     -19.494  -1.070  -6.139  0.00  0.00    +0.106 C 
ATOM     29  C   UNL     1     -19.595  -2.201  -5.157  0.00  0.00    +0.163 C 
BRANCH  29  30
ATOM     30  N   UNL     1     -19.210  -1.669  -3.842  0.00  0.00    -0.289 NA
ATOM     31  C   UNL     1     -19.111  -2.564  -2.925  0.00  0.00    +0.135 C 
ENDBRANCH  29  30
ENDBRANCH  23  25
ENDBRANCH  22  23
ENDBRANCH  18  22
ENDBRANCH   2  17
TORSDOF 14
