REMARK  Name = 
REMARK  1 active torsions:
REMARK  status: ('A' for Active; 'I' for Inactive)
REMARK    1  A    between atoms: C_5  and  C_6
REMARK                            x       y       z     vdW  Elec       q    Type
REMARK                         _______ _______ _______ _____ _____    ______ ____
ROOT
ATOM      1  C   UNL     1       0.678  -0.959  -0.002  0.00  0.00    -0.001 C 
ATOM      2  C   UNL     1       1.152   0.298   0.001  0.00  0.00    -0.023 C 
ATOM      3  C   UNL     1       0.010   1.272  -0.000  0.00  0.00    +0.054 C 
ATOM      4  C   UNL     1      -1.177   0.355  -0.004  0.00  0.00    -0.020 C 
ATOM      5  C   UNL     1      -0.768  -0.923  -0.005  0.00  0.00    -0.054 C 
ATOM      6  C   UNL     1      -1.605  -2.149  -0.008  0.00  0.00    +0.043 C 
ENDROOT
TORSDOF 0
