REMARK  Name = 
REMARK  2 active torsions:
REMARK  status: ('A' for Active; 'I' for Inactive)
REMARK    1  A    between atoms: N_4  and  C_5
REMARK    2  A    between atoms: C_6  and  N_7
REMARK                            x       y       z     vdW  Elec       q    Type
REMARK                         _______ _______ _______ _____ _____    ______ ____
ROOT
ATOM      1  C   UNL     1       2.309  -0.627   0.018  0.00  0.00    +0.089 C 
ATOM      2  C   UNL     1       3.403   0.143   0.012  0.00  0.00    +0.080 C 
ENDROOT
BRANCH   1   6
ATOM      3  C   UNL     1       0.386   1.047   0.004  0.00  0.00    +0.138 C 
ATOM      4  C   UNL     1      -0.885   0.229  -0.009  0.00  0.00    +0.007 C 
ATOM      5  C   UNL     1      -0.122  -0.891  -0.029  0.00  0.00    +0.072 C 
ATOM      6  N   UNL     1       1.006  -0.235  -0.055  0.00  0.00    -0.308 N 
ENDBRANCH   1   6
BRANCH   2   7
ATOM      7  N   UNL     1       4.710  -0.265   0.102  0.00  0.00    -0.363 N 
ATOM      8  H   UNL     1       4.853  -1.250  -0.107  0.00  0.00    +0.142 HD
ATOM      9  H   UNL     1       5.366   0.342  -0.381  0.00  0.00    +0.142 HD
ENDBRANCH   2   7
TORSDOF 2
