REMARK  Name = 
REMARK  3 active torsions:
REMARK  status: ('A' for Active; 'I' for Inactive)
REMARK    1  A    between atoms: C_1  and  N_2
REMARK    2  A    between atoms: N_2  and  C_3
REMARK    3  A    between atoms: N_2  and  S_4
REMARK                            x       y       z     vdW  Elec       q    Type
REMARK                         _______ _______ _______ _____ _____    ______ ____
ROOT
ATOM      1  S   UNL     1       0.906  -2.321  -2.583  0.00  0.00    -0.093 S 
ATOM      2  C   UNL     1      -0.669  -1.956  -3.936  0.00  0.00    +0.050 C 
ATOM      3  C   UNL     1      -1.478  -3.001  -4.416  0.00  0.00    +0.007 C 
ATOM      4  C   UNL     1      -1.741  -3.478  -5.871  0.00  0.00    +0.001 C 
ATOM      5  C   UNL     1      -1.153  -3.041  -7.000  0.00  0.00    +0.000 C 
ATOM      6  C   UNL     1       0.133  -3.643  -7.372  0.00  0.00    +0.000 C 
ATOM      7  C   UNL     1       1.148  -3.382  -6.557  0.00  0.00    +0.000 C 
ATOM      8  C   UNL     1       2.501  -3.645  -6.829  0.00  0.00    +0.001 C 
ATOM      9  C   UNL     1       3.333  -3.328  -5.833  0.00  0.00    +0.019 C 
ATOM     10  C   UNL     1       4.752  -3.291  -6.033  0.00  0.00    +0.105 C 
ATOM     11  N   UNL     1       5.367  -3.211  -4.925  0.00  0.00    -0.287 NA
ATOM     12  C   UNL     1       6.656  -2.612  -4.873  0.00  0.00    +0.176 C 
ATOM     13  C   UNL     1       2.499  -1.116  -2.787  0.00  0.00    +0.050 C 
ATOM     14  C   UNL     1       4.106  -1.475  -3.061  0.00  0.00    +0.008 C 
ATOM     15  C   UNL     1       5.445  -1.408  -2.713  0.00  0.00    +0.005 C 
ATOM     16  C   UNL     1       6.720  -1.796  -3.558  0.00  0.00    -0.033 C 
ATOM     17  C   UNL     1       8.080  -1.623  -3.236  0.00  0.00    +0.014 C 
ENDROOT
BRANCH   1  19
ATOM     18  C   UNL     1       0.201  -2.155   0.069  0.00  0.00    +0.117 C 
ATOM     19  N   UNL     1       0.206  -1.359  -1.197  0.00  0.00    -0.258 NA
ATOM     20  C   UNL     1       0.697  -0.009  -0.753  0.00  0.00    +0.117 C 
ENDBRANCH   1  19
TORSDOF 1
