REMARK  Name = 
REMARK  8 active torsions:
REMARK  status: ('A' for Active; 'I' for Inactive)
REMARK    1  A    between atoms: C_2  and  N_5
REMARK    2  A    between atoms: N_5  and  C_6
REMARK    3  A    between atoms: C_7  and  C_8
REMARK    4  A    between atoms: C_12  and  C_13
REMARK    5  A    between atoms: N_14  and  C_15
REMARK    6  A    between atoms: C_16  and  C_17
REMARK    7  A    between atoms: C_17  and  C_18
REMARK    8  A    between atoms: C_18  and  C_19
REMARK                            x       y       z     vdW  Elec       q    Type
REMARK                         _______ _______ _______ _____ _____    ______ ____
ROOT
ATOM      1  C   UNL     1       3.431  -4.553   4.368  0.00  0.00    +0.129 C 
ATOM      2  N   UNL     1       4.906  -4.472   4.069  0.00  0.00    -0.232 NA
ATOM      3  N   UNL     1       5.262  -5.764   3.595  0.00  0.00    -0.286 N 
ATOM      4  C   UNL     1       4.173  -6.592   3.604  0.00  0.00    +0.091 C 
ATOM      5  C   UNL     1       3.104  -5.998   4.137  0.00  0.00    +0.008 C 
ATOM      6  H   UNL     1       5.377  -4.312   4.963  0.00  0.00    +0.145 HD
ATOM      7  H   UNL     1       5.929  -5.849   2.825  0.00  0.00    +0.166 HD
ENDROOT
BRANCH   1   9
ATOM      8  C   UNL     1       3.077  -2.801   2.517  0.00  0.00    +0.070 C 
ATOM      9  C   UNL     1       2.637  -3.626   3.474  0.00  0.00    +0.013 C 
BRANCH   8  10
ATOM     10  N   UNL     1       2.257  -2.005   1.756  0.00  0.00    -0.319 N 
ATOM     11  H   UNL     1       1.271  -2.102   1.971  0.00  0.00    +0.152 HD
BRANCH  10  13
ATOM     12  C   UNL     1       1.389  -0.607   0.353  0.00  0.00    +0.054 C 
ATOM     13  C   UNL     1       2.610  -1.135   0.772  0.00  0.00    +0.058 C 
ATOM     14  C   UNL     1       2.579  -0.196  -0.258  0.00  0.00    +0.078 C 
ATOM     15  N   UNL     1       3.125   0.528  -1.100  0.00  0.00    -0.298 NA
ATOM     16  H   UNL     1       4.141   0.394  -1.085  0.00  0.00    +0.187 HD
ENDBRANCH  10  13
ENDBRANCH   8  10
ENDBRANCH   1   9
BRANCH   5  17
ATOM     17  C   UNL     1       1.868  -6.687   4.541  0.00  0.00    +0.117 C 
ATOM     18  N   UNL     1       0.859  -6.068   5.068  0.00  0.00    -0.263 NA
BRANCH  18  19
ATOM     19  C   UNL     1      -0.214  -6.832   5.453  0.00  0.00    +0.106 C 
ATOM     20  C   UNL     1      -0.999  -6.449   6.472  0.00  0.00    -0.007 C 
BRANCH  20  21
ATOM     21  C   UNL     1      -2.218  -7.196   6.955  0.00  0.00    +0.033 C 
BRANCH  21  22
ATOM     22  C   UNL     1      -3.270  -6.254   7.565  0.00  0.00    +0.040 C 
BRANCH  22  23
ATOM     23  C   UNL     1      -4.495  -6.973   8.060  0.00  0.00    +0.033 C 
ATOM     24  C   UNL     1      -4.637  -7.432   9.270  0.00  0.00    -0.072 C 
ATOM     25  S   UNL     1      -4.804  -7.998  10.746  0.00  0.00    -0.001 S 
ENDBRANCH  22  23
ENDBRANCH  21  22
ENDBRANCH  20  21
ENDBRANCH  18  19
ENDBRANCH   5  17
TORSDOF 8
