REMARK  Name = 
REMARK  0 active torsions:
REMARK  status: ('A' for Active; 'I' for Inactive)
REMARK                            x       y       z     vdW  Elec       q    Type
REMARK                         _______ _______ _______ _____ _____    ______ ____
ROOT
ATOM      1  C   UNL     1       0.194  -2.678  -0.310  0.00  0.00    +0.042 C 
ATOM      2  C   UNL     1       1.317  -2.579   0.733  0.00  0.00    +0.090 C 
ATOM      3  N   UNL     1       2.688  -2.402   0.210  0.00  0.00    -0.283 NA
ATOM      4  C   UNL     1       3.499  -1.617   1.137  0.00  0.00    +0.228 C 
ATOM      5  N   UNL     1       3.123  -0.209   1.192  0.00  0.00    -0.277 NA
ATOM      6  C   UNL     1       2.811   0.334   0.064  0.00  0.00    +0.016 C 
ATOM      7  C   UNL     1       2.963  -0.358  -1.260  0.00  0.00    +0.066 C 
ATOM      8  C   UNL     1       2.850  -1.871  -1.140  0.00  0.00    +0.092 C 
ATOM      9  C   UNL     1       2.323   1.765   0.060  0.00  0.00    +0.055 C 
ATOM     10  C   UNL     1       1.060   1.875   0.915  0.00  0.00    +0.038 C 
ATOM     11  C   UNL     1      -0.207   2.225   0.196  0.00  0.00    -0.054 C 
ATOM     12  C   UNL     1      -1.479   1.811   0.085  0.00  0.00    -0.033 C 
ATOM     13  C   UNL     1      -1.209   2.982   0.918  0.00  0.00    +0.068 C 
ATOM     14  C   UNL     1      -1.286   2.744   2.372  0.00  0.00    -0.014 C 
ATOM     15  C   UNL     1      -1.841   1.635   2.902  0.00  0.00    -0.003 C 
ATOM     16  C   UNL     1      -2.499   0.705   2.012  0.00  0.00    +0.003 C 
ATOM     17  C   UNL     1      -2.347   0.795   0.671  0.00  0.00    -0.043 C 
ATOM     18  C   UNL     1      -3.338   0.092  -0.248  0.00  0.00    +0.039 C 
ATOM     19  C   UNL     1      -3.431  -1.437  -0.115  0.00  0.00    +0.031 C 
ATOM     20  C   UNL     1      -2.142  -2.030  -0.570  0.00  0.00    -0.031 C 
ATOM     21  C   UNL     1      -1.193  -2.514   0.234  0.00  0.00    -0.030 C 
ENDROOT
TORSDOF 0
