REMARK  Name = 
REMARK  7 active torsions:
REMARK  status: ('A' for Active; 'I' for Inactive)
REMARK    1  A    between atoms: C_1  and  C_2
REMARK    2  A    between atoms: C_2  and  C_3
REMARK    3  A    between atoms: C_6  and  C_7
REMARK    4  A    between atoms: C_8  and  C_9
REMARK    5  A    between atoms: C_14  and  N_15
REMARK    6  A    between atoms: C_17  and  C_18
REMARK    7  A    between atoms: C_18  and  C_19
REMARK                            x       y       z     vdW  Elec       q    Type
REMARK                         _______ _______ _______ _____ _____    ______ ____
ROOT
ATOM      1  C   UNL     1       4.639  -3.805  -2.056  0.00  0.00    +0.009 C 
ATOM      2  C   UNL     1       4.666  -4.683  -3.073  0.00  0.00    +0.008 C 
ENDROOT
BRANCH   2   3
ATOM      3  C   UNL     1       5.897  -5.318  -3.583  0.00  0.00    -0.005 A 
ATOM      4  C   UNL     1       6.612  -4.677  -4.602  0.00  0.00    +0.010 A 
ATOM      5  C   UNL     1       7.764  -5.251  -5.147  0.00  0.00    +0.001 A 
ATOM      6  C   UNL     1       8.220  -6.477  -4.668  0.00  0.00    +0.002 A 
ATOM      7  C   UNL     1       7.514  -7.130  -3.662  0.00  0.00    +0.023 A 
ATOM      8  C   UNL     1       6.362  -6.565  -3.092  0.00  0.00    +0.032 A 
BRANCH   8   9
ATOM      9  N   UNL     1       5.582  -7.378  -2.249  0.00  0.00    -0.358 N 
ATOM     10  H   UNL     1       6.127  -8.032  -1.692  0.00  0.00    +0.142 HD
ATOM     11  H   UNL     1       4.898  -6.869  -1.701  0.00  0.00    +0.142 HD
ENDBRANCH   8   9
ENDBRANCH   2   3
BRANCH   1  15
ATOM     12  C   UNL     1       3.563  -1.328  -0.210  0.00  0.00    +0.168 C 
ATOM     13  C   UNL     1       3.312  -2.456   0.721  0.00  0.00    +0.007 C 
ATOM     14  C   UNL     1       3.260  -3.582   0.021  0.00  0.00    +0.007 C 
ATOM     15  C   UNL     1       3.364  -3.290  -1.441  0.00  0.00    +0.165 C 
ATOM     16  O   UNL     1       3.309  -1.858  -1.522  0.00  0.00    -0.357 OA
BRANCH  12  18
ATOM     17  C   UNL     1       1.369  -0.168   0.593  0.00  0.00    +0.042 C 
ATOM     18  C   UNL     1       2.752  -0.068   0.001  0.00  0.00    -0.044 C 
ATOM     19  C   UNL     1       3.244   1.142  -0.334  0.00  0.00    -0.025 C 
BRANCH  19  20
ATOM     20  C   UNL     1       4.581   1.352  -0.993  0.00  0.00    +0.024 C 
ATOM     21  C   UNL     1       5.710   1.574  -0.004  0.00  0.00    +0.008 C 
ENDBRANCH  19  20
ENDBRANCH  12  18
ENDBRANCH   1  15
TORSDOF 5
