REMARK  Name = 
REMARK  5 active torsions:
REMARK  status: ('A' for Active; 'I' for Inactive)
REMARK    1  A    between atoms: N_2  and  C_3
REMARK    2  A    between atoms: C_3  and  C_4
REMARK    3  A    between atoms: C_5  and  C_6
REMARK    4  A    between atoms: C_6  and  C_7
REMARK    5  A    between atoms: N_11  and  C_12
REMARK                            x       y       z     vdW  Elec       q    Type
REMARK                         _______ _______ _______ _____ _____    ______ ____
ROOT
ATOM      1  C   UNL     1       4.055  -1.904   3.767  0.00  0.00    +0.133 C 
ATOM      2  N   UNL     1       5.294  -2.560   4.460  0.00  0.00    -0.327 N 
ATOM      3  C   UNL     1       6.563  -2.708   3.828  0.00  0.00    +0.086 C 
ATOM      4  C   UNL     1       7.856  -2.540   4.195  0.00  0.00    +0.094 C 
ATOM      5  N   UNL     1       9.064  -2.395   3.385  0.00  0.00    -0.287 N 
ATOM      6  C   UNL     1       8.976  -1.645   2.187  0.00  0.00    +0.094 C 
ATOM      7  C   UNL     1       8.528  -2.106   1.001  0.00  0.00    +0.084 C 
ATOM      8  N   UNL     1       7.646  -1.372   0.154  0.00  0.00    -0.333 N 
ATOM      9  C   UNL     1       6.369  -1.274   0.851  0.00  0.00    +0.206 C 
ATOM     10  N   UNL     1       5.062  -1.348   0.220  0.00  0.00    -0.335 N 
ATOM     11  C   UNL     1       4.162  -1.815   1.216  0.00  0.00    +0.066 C 
ATOM     12  C   UNL     1       4.201  -1.242   2.444  0.00  0.00    +0.007 C 
ATOM     13  H   UNL     1       7.980  -0.414   0.065  0.00  0.00    +0.147 HD
ATOM     14  H   UNL     1       4.809  -0.402  -0.062  0.00  0.00    +0.147 HD
ENDROOT
BRANCH   5  15
ATOM     15  C   UNL     1      10.355  -2.555   3.926  0.00  0.00    +0.072 C 
ATOM     16  C   UNL     1      11.553  -2.212   3.417  0.00  0.00    +0.025 C 
ENDBRANCH   5  15
BRANCH   2  17
ATOM     17  C   UNL     1       4.686  -3.734   5.130  0.00  0.00    +0.132 C 
BRANCH  17  18
ATOM     18  C   UNL     1       5.264  -4.252   6.401  0.00  0.00    -0.012 C 
ATOM     19  C   UNL     1       4.463  -5.112   7.069  0.00  0.00    -0.025 C 
BRANCH  19  20
ATOM     20  C   UNL     1       4.655  -5.816   8.370  0.00  0.00    +0.053 C 
BRANCH  20  21
ATOM     21  C   UNL     1       4.562  -7.320   8.286  0.00  0.00    -0.030 C 
ATOM     22  C   UNL     1       4.399  -8.090   7.196  0.00  0.00    +0.004 C 
ENDBRANCH  20  21
ENDBRANCH  19  20
ENDBRANCH  17  18
ENDBRANCH   2  17
TORSDOF 5
