REMARK  Name = 
REMARK  8 active torsions:
REMARK  status: ('A' for Active; 'I' for Inactive)
REMARK    1  A    between atoms: C_1  and  C_2
REMARK    2  A    between atoms: C_3  and  C_4
REMARK    3  A    between atoms: C_4  and  C_5
REMARK    4  A    between atoms: C_10  and  C_11
REMARK    5  A    between atoms: C_15  and  O_16
REMARK    6  A    between atoms: C_20  and  C_24
REMARK    7  A    between atoms: C_27  and  C_28
REMARK    8  A    between atoms: C_28  and  C_29
REMARK                            x       y       z     vdW  Elec       q    Type
REMARK                         _______ _______ _______ _____ _____    ______ ____
ROOT
ATOM      1  C   UNL     1       5.326   0.902   2.005  0.00  0.00    -0.017 C 
ATOM      2  C   UNL     1       6.449   0.373   2.532  0.00  0.00    -0.023 C 
ATOM      3  C   UNL     1       7.154  -0.752   1.911  0.00  0.00    +0.008 C 
ATOM      4  C   UNL     1       7.428  -1.933   2.508  0.00  0.00    +0.028 C 
ATOM      5  C   UNL     1       7.115  -2.202   3.912  0.00  0.00    +0.072 C 
ATOM      6  C   UNL     1       6.767  -3.398   4.452  0.00  0.00    -0.007 C 
ATOM      7  C   UNL     1       6.063  -3.472   5.786  0.00  0.00    +0.047 C 
ATOM      8  C   UNL     1       6.998   0.892   3.846  0.00  0.00    +0.228 C 
ATOM      9  O   UNL     1       6.729  -0.021   4.926  0.00  0.00    -0.264 OA
ATOM     10  N   UNL     1       7.534  -1.154   4.749  0.00  0.00    -0.220 N 
ATOM     11  C   UNL     1       8.769  -1.178   5.539  0.00  0.00    +0.262 C 
ATOM     12  C   UNL     1       9.853  -1.953   4.810  0.00  0.00    +0.028 C 
ATOM     13  C   UNL     1      10.178  -3.247   4.987  0.00  0.00    +0.000 C 
ATOM     14  C   UNL     1      11.040  -4.020   4.094  0.00  0.00    +0.005 C 
ATOM     15  C   UNL     1      10.785  -5.284   3.659  0.00  0.00    -0.026 C 
ATOM     16  C   UNL     1       9.418  -5.936   3.854  0.00  0.00    +0.176 C 
ATOM     17  N   UNL     1       8.402  -4.966   3.344  0.00  0.00    -0.287 NA
ATOM     18  C   UNL     1       7.525  -4.687   4.243  0.00  0.00    +0.110 C 
ENDROOT
BRANCH  15  19
ATOM     19  C   UNL     1      11.812  -6.010   2.890  0.00  0.00    +0.013 C 
ATOM     20  C   UNL     1      11.884  -7.322   2.680  0.00  0.00    -0.021 C 
ATOM     21  C   UNL     1      13.104  -7.521   1.868  0.00  0.00    +0.012 C 
ATOM     22  C   UNL     1      12.418  -8.547   2.208  0.00  0.00    -0.036 C 
BRANCH  22  23
ATOM     23  C   UNL     1      12.297  -9.987   2.029  0.00  0.00    +0.062 C 
BRANCH  23  24
ATOM     24  C   UNL     1      12.475 -10.763   3.306  0.00  0.00    -0.030 C 
ATOM     25  C   UNL     1      13.434 -11.674   3.513  0.00  0.00    +0.004 C 
ENDBRANCH  23  24
ENDBRANCH  22  23
ENDBRANCH  15  19
BRANCH  11  26
ATOM     26  O   UNL     1       8.446  -1.726   6.797  0.00  0.00    -0.367 OA
ATOM     27  H   UNL     1       7.510  -1.450   6.868  0.00  0.00    +0.212 HD
ENDBRANCH  11  26
BRANCH   1  28
ATOM     28  C   UNL     1       4.602   0.444   0.771  0.00  0.00    +0.054 C 
BRANCH  28  31
ATOM     29  C   UNL     1       1.322  -1.639   1.161  0.00  0.00    +0.035 C 
ATOM     30  C   UNL     1       2.282  -0.540   0.844  0.00  0.00    -0.034 C 
ATOM     31  C   UNL     1       3.596  -0.622   1.102  0.00  0.00    -0.027 C 
ENDBRANCH  28  31
ENDBRANCH   1  28
TORSDOF 6
