REMARK  Name = 
REMARK  13 active torsions:
REMARK  status: ('A' for Active; 'I' for Inactive)
REMARK    1  A    between atoms: C_5  and  C_6
REMARK    2  A    between atoms: C_8  and  C_9
REMARK    3  A    between atoms: C_9  and  N_11
REMARK    4  A    between atoms: N_11  and  C_12
REMARK    5  A    between atoms: C_12  and  C_14
REMARK    6  A    between atoms: C_15  and  C_16
REMARK    7  A    between atoms: C_16  and  N_18
REMARK    8  A    between atoms: C_20  and  C_21
REMARK    9  A    between atoms: C_21  and  C_22
REMARK   10  A    between atoms: C_22  and  C_23
REMARK   11  A    between atoms: C_23  and  C_24
REMARK   12  A    between atoms: C_24  and  C_25
REMARK   13  A    between atoms: C_25  and  C_26
REMARK                            x       y       z     vdW  Elec       q    Type
REMARK                         _______ _______ _______ _____ _____    ______ ____
ROOT
ATOM      1  C   UNL     1       2.633   4.805  -0.936  0.00  0.00    +0.024 C 
ATOM      2  C   UNL     1       1.788   3.760  -0.841  0.00  0.00    +0.033 C 
ENDROOT
BRANCH   1   3
ATOM      3  N   UNL     1       4.001   4.765  -0.672  0.00  0.00    -0.316 N 
ATOM      4  H   UNL     1       4.400   5.677  -0.467  0.00  0.00    +0.152 HD
BRANCH   3   5
ATOM      5  C   UNL     1       4.889   3.730  -0.366  0.00  0.00    +0.042 C 
ATOM      6  C   UNL     1       4.755   2.448  -0.758  0.00  0.00    +0.032 C 
BRANCH   5  14
ATOM      7  C   UNL     1       7.349   4.300  -0.575  0.00  0.00    +0.069 C 
ATOM      8  C   UNL     1       8.522   5.087  -0.019  0.00  0.00    +0.105 C 
ATOM      9  N   UNL     1       8.867   4.585   1.296  0.00  0.00    -0.347 N 
ATOM     10  C   UNL     1       8.108   4.899   2.397  0.00  0.00    +0.108 C 
ATOM     11  C   UNL     1       6.803   5.236   2.416  0.00  0.00    +0.109 C 
ATOM     12  C   UNL     1       6.132   5.641   3.692  0.00  0.00    +0.087 C 
ATOM     13  O   UNL     1       5.969   5.223   1.291  0.00  0.00    -0.486 OA
ATOM     14  C   UNL     1       6.188   4.091   0.418  0.00  0.00    +0.218 C 
ATOM     15  H   UNL     1       9.849   4.383   1.466  0.00  0.00    +0.146 HD
ENDBRANCH   5  14
ENDBRANCH   3   5
ENDBRANCH   1   3
BRANCH   1  16
ATOM     16  C   UNL     1       2.000   6.098  -1.276  0.00  0.00    +0.025 C 
ATOM     17  C   UNL     1       2.612   7.280  -1.475  0.00  0.00    +0.030 C 
BRANCH  17  18
ATOM     18  C   UNL     1       1.936   8.528  -1.811  0.00  0.00    +0.067 C 
ATOM     19  C   UNL     1       0.972   9.036  -1.022  0.00  0.00    +0.039 C 
BRANCH  18  20
ATOM     20  N   UNL     1       2.390   9.071  -2.991  0.00  0.00    -0.206 NA
ATOM     21  C   UNL     1       2.446  10.237  -3.052  0.00  0.00    -0.016 C 
ATOM     22  C   UNL     1       2.543  11.533  -3.181  0.00  0.00    +0.045 C 
BRANCH  22  23
ATOM     23  C   UNL     1       1.773  12.539  -2.383  0.00  0.00    +0.037 C 
BRANCH  23  24
ATOM     24  C   UNL     1       2.494  12.975  -1.105  0.00  0.00    +0.005 C 
BRANCH  24  25
ATOM     25  C   UNL     1       3.818  13.687  -1.390  0.00  0.00    +0.000 C 
BRANCH  25  26
ATOM     26  C   UNL     1       4.504  14.143  -0.103  0.00  0.00    -0.000 C 
BRANCH  26  27
ATOM     27  C   UNL     1       5.828  14.840  -0.415  0.00  0.00    -0.003 C 
ATOM     28  C   UNL     1       6.529  15.298   0.853  0.00  0.00    +0.004 C 
ENDBRANCH  26  27
ENDBRANCH  25  26
ENDBRANCH  24  25
ENDBRANCH  23  24
ENDBRANCH  22  23
ENDBRANCH  18  20
ENDBRANCH  17  18
ENDBRANCH   1  16
TORSDOF 11
