REMARK  Name = 
REMARK  0 active torsions:
REMARK  status: ('A' for Active; 'I' for Inactive)
REMARK                            x       y       z     vdW  Elec       q    Type
REMARK                         _______ _______ _______ _____ _____    ______ ____
ROOT
ATOM      1  C   UNL     1      -1.615   0.804   2.000  0.00  0.00    +0.047 C 
ATOM      2  C   UNL     1      -2.155   1.897   2.877  0.00  0.00    -0.005 C 
ATOM      3  C   UNL     1      -2.902   2.751   2.151  0.00  0.00    +0.021 C 
ATOM      4  C   UNL     1      -4.056   3.539   2.770  0.00  0.00    +0.152 C 
ATOM      5  N   UNL     1      -3.932   4.970   2.634  0.00  0.00    -0.338 N 
ATOM      6  N   UNL     1      -2.796   2.430   0.764  0.00  0.00    -0.316 N 
ATOM      7  C   UNL     1      -2.476   0.978   0.738  0.00  0.00    +0.110 C 
ATOM      8  C   UNL     1      -1.804   3.199  -0.022  0.00  0.00    +0.212 C 
ATOM      9  N   UNL     1      -2.510   3.564  -1.212  0.00  0.00    -0.296 N 
ATOM     10  C   UNL     1      -3.041   4.840  -1.189  0.00  0.00    +0.240 C 
ATOM     11  O   UNL     1      -2.356   5.854  -1.181  0.00  0.00    -0.271 OA
ATOM     12  C   UNL     1      -4.519   4.789  -1.012  0.00  0.00    +0.090 C 
ATOM     13  C   UNL     1      -5.162   5.654  -0.207  0.00  0.00    +0.036 C 
ATOM     14  N   UNL     1      -6.308   5.257   0.528  0.00  0.00    -0.319 N 
ATOM     15  C   UNL     1      -6.211   5.458   1.956  0.00  0.00    +0.095 C 
ATOM     16  C   UNL     1      -4.993   5.873   2.435  0.00  0.00    +0.041 C 
ATOM     17  C   UNL     1      -4.512   7.033   1.651  0.00  0.00    +0.026 C 
ATOM     18  C   UNL     1      -4.553   6.888   0.309  0.00  0.00    +0.025 C 
ATOM     19  H   UNL     1      -3.138   5.388   3.114  0.00  0.00    +0.146 HD
ATOM     20  H   UNL     1      -3.167   2.827  -1.399  0.00  0.00    +0.151 HD
ATOM     21  H   UNL     1      -6.530   4.274   0.360  0.00  0.00    +0.152 HD
ENDROOT
TORSDOF 0
