REMARK  Name = 
REMARK  17 active torsions:
REMARK  status: ('A' for Active; 'I' for Inactive)
REMARK    1  A    between atoms: C_2  and  C_3
REMARK    2  A    between atoms: C_4  and  C_5
REMARK    3  A    between atoms: C_5  and  C_6
REMARK    4  A    between atoms: C_7  and  C_8
REMARK    5  A    between atoms: C_8  and  C_9
REMARK    6  A    between atoms: C_9  and  S_11
REMARK    7  A    between atoms: S_11  and  N_12
REMARK    8  A    between atoms: N_12  and  C_13
REMARK    9  A    between atoms: C_14  and  O_15
REMARK   10  A    between atoms: C_14  and  N_16
REMARK   11  A    between atoms: N_18  and  C_19
REMARK   12  A    between atoms: C_20  and  C_21
REMARK   13  A    between atoms: C_22  and  N_23
REMARK   14  A    between atoms: N_25  and  C_26
REMARK   15  A    between atoms: C_27  and  C_28
REMARK   16  A    between atoms: C_31  and  C_35
REMARK   17  A    between atoms: C_33  and  C_34
REMARK                            x       y       z     vdW  Elec       q    Type
REMARK                         _______ _______ _______ _____ _____    ______ ____
ROOT
ATOM      1  N   UNL     1      15.522  -5.431   5.839  0.00  0.00    -0.276 N 
ATOM      2  C   UNL     1      16.143  -6.249   6.758  0.00  0.00    +0.188 C 
ATOM      3  N   UNL     1      17.430  -6.371   6.906  0.00  0.00    -0.248 NA
ATOM      4  H   UNL     1      16.158  -4.903   5.255  0.00  0.00    +0.156 HD
ENDROOT
BRANCH   1   6
ATOM      5  C   UNL     1      13.626  -4.397   4.696  0.00  0.00    +0.141 C 
ATOM      6  C   UNL     1      14.175  -5.231   5.607  0.00  0.00    +0.197 C 
BRANCH   5   7
ATOM      7  N   UNL     1      12.261  -4.143   4.526  0.00  0.00    -0.287 N 
ATOM      8  H   UNL     1      12.072  -3.139   4.525  0.00  0.00    +0.160 HD
BRANCH   7   9
ATOM      9  S   UNL     1      11.491  -4.952   3.259  0.00  0.00    -0.030 S 
BRANCH   9  10
ATOM     10  C   UNL     1      10.852  -3.662   2.239  0.00  0.00    +0.001 C 
ATOM     11  C   UNL     1      11.586  -2.576   1.938  0.00  0.00    +0.021 C 
BRANCH  10  12
ATOM     12  C   UNL     1       9.533  -3.911   1.505  0.00  0.00    +0.070 C 
BRANCH  12  14
ATOM     13  C   UNL     1       7.427  -2.503   1.690  0.00  0.00    -0.027 C 
ATOM     14  C   UNL     1       8.321  -3.359   2.219  0.00  0.00    -0.026 C 
BRANCH  13  15
ATOM     15  C   UNL     1       6.171  -2.055   2.396  0.00  0.00    +0.054 C 
BRANCH  15  17
ATOM     16  C   UNL     1       5.112   0.217   2.181  0.00  0.00    -0.005 C 
ATOM     17  C   UNL     1       6.127  -0.565   2.587  0.00  0.00    -0.023 C 
BRANCH  16  19
ATOM     18  C   UNL     1       4.059   2.420   2.025  0.00  0.00    +0.008 C 
ATOM     19  C   UNL     1       5.072   1.641   2.420  0.00  0.00    -0.008 C 
ENDBRANCH  16  19
ENDBRANCH  15  17
ENDBRANCH  13  15
ENDBRANCH  12  14
ENDBRANCH  10  12
ENDBRANCH   9  10
ENDBRANCH   7   9
ENDBRANCH   5   7
BRANCH   6  20
ATOM     20  O   UNL     1      13.308  -5.946   6.415  0.00  0.00    -0.494 OA
ATOM     21  H   UNL     1      12.415  -5.723   6.084  0.00  0.00    +0.294 HD
ENDBRANCH   6  20
ENDBRANCH   1   6
BRANCH   3  22
ATOM     22  C   UNL     1      17.867  -7.256   7.876  0.00  0.00    +0.112 C 
ATOM     23  C   UNL     1      19.173  -7.485   8.123  0.00  0.00    +0.021 C 
BRANCH  23  24
ATOM     24  C   UNL     1      19.684  -8.421   9.125  0.00  0.00    +0.017 C 
ATOM     25  C   UNL     1      20.991  -8.644   9.366  0.00  0.00    +0.073 C 
BRANCH  25  26
ATOM     26  N   UNL     1      21.552  -9.514  10.285  0.00  0.00    -0.312 N 
ATOM     27  C   UNL     1      22.877  -9.762  10.561  0.00  0.00    +0.185 C 
ATOM     28  N   UNL     1      23.304 -10.612  11.444  0.00  0.00    -0.248 NA
ATOM     29  H   UNL     1      20.900 -10.058  10.840  0.00  0.00    +0.152 HD
BRANCH  28  30
ATOM     30  C   UNL     1      24.673 -10.717  11.599  0.00  0.00    +0.113 C 
ATOM     31  C   UNL     1      25.233 -11.564  12.473  0.00  0.00    +0.028 C 
BRANCH  31  32
ATOM     32  C   UNL     1      26.690 -11.677  12.695  0.00  0.00    -0.021 A 
ATOM     33  C   UNL     1      27.274 -10.892  13.702  0.00  0.00    +0.008 A 
ATOM     34  C   UNL     1      28.644 -10.974  13.983  0.00  0.00    +0.004 A 
ATOM     35  C   UNL     1      29.463 -11.849  13.266  0.00  0.00    -0.050 A 
ATOM     36  C   UNL     1      28.886 -12.637  12.263  0.00  0.00    +0.007 A 
ATOM     37  C   UNL     1      27.510 -12.559  11.962  0.00  0.00    -0.043 A 
ATOM     38  C   UNL     1      26.955 -13.447  10.885  0.00  0.00    +0.044 C 
ATOM     39  C   UNL     1      30.932 -11.958  13.553  0.00  0.00    +0.044 C 
ENDBRANCH  31  32
ENDBRANCH  28  30
ENDBRANCH  25  26
ENDBRANCH  23  24
ENDBRANCH   3  22
TORSDOF 15
