REMARK  Name = 
REMARK  14 active torsions:
REMARK  status: ('A' for Active; 'I' for Inactive)
REMARK    1  A    between atoms: C_1  and  C_2
REMARK    2  A    between atoms: C_2  and  O_3
REMARK    3  A    between atoms: O_3  and  C_4
REMARK    4  A    between atoms: C_4  and  C_6
REMARK    5  A    between atoms: N_8  and  C_9
REMARK    6  A    between atoms: C_13  and  C_14
REMARK    7  A    between atoms: C_16  and  O_17
REMARK    8  A    between atoms: C_21  and  C_22
REMARK    9  A    between atoms: C_22  and  C_24
REMARK   10  A    between atoms: C_24  and  C_25
REMARK   11  A    between atoms: C_25  and  C_26
REMARK   12  A    between atoms: C_26  and  C_27
REMARK   13  A    between atoms: C_27  and  C_28
REMARK   14  A    between atoms: C_28  and  C_29
REMARK                            x       y       z     vdW  Elec       q    Type
REMARK                         _______ _______ _______ _____ _____    ______ ____
ROOT
ATOM      1  C   UNL     1       9.873   1.527  -2.521  0.00  0.00    +0.123 C 
ATOM      2  C   UNL     1      11.582   1.404  -3.558  0.00  0.00    +0.131 C 
ATOM      3  N   UNL     1      13.024   2.306  -4.378  0.00  0.00    -0.331 N 
ATOM      4  C   UNL     1      14.285   1.832  -3.655  0.00  0.00    +0.129 C 
ATOM      5  C   UNL     1       9.593   2.692  -1.703  0.00  0.00    -0.003 C 
ATOM      6  C   UNL     1       9.013   2.677  -2.911  0.00  0.00    -0.049 C 
ATOM      7  C   UNL     1       7.763   2.225  -3.737  0.00  0.00    +0.050 C 
ATOM      8  C   UNL     1       8.256   1.162  -4.782  0.00  0.00    +0.057 C 
ATOM      9  C   UNL     1       8.402  -0.366  -4.529  0.00  0.00    +0.024 C 
ATOM     10  N   UNL     1       8.452   1.656  -6.170  0.00  0.00    -0.286 NA
ATOM     11  C   UNL     1       9.897   1.577  -6.350  0.00  0.00    +0.207 C 
ATOM     12  C   UNL     1      10.576   2.239  -7.466  0.00  0.00    +0.020 C 
ATOM     13  C   UNL     1      11.569   2.998  -6.981  0.00  0.00    +0.001 C 
ATOM     14  C   UNL     1      12.892   2.581  -7.090  0.00  0.00    +0.023 C 
ATOM     15  C   UNL     1      13.649   2.611  -5.967  0.00  0.00    +0.032 C 
ATOM     16  H   UNL     1       8.251   2.660  -6.143  0.00  0.00    +0.125 HD
ENDROOT
BRANCH   1  17
ATOM     17  C   UNL     1       8.613   0.324  -1.805  0.00  0.00    +0.323 C 
ATOM     18  O   UNL     1       9.099  -0.626  -1.154  0.00  0.00    -0.249 OA
BRANCH  17  19
ATOM     19  O   UNL     1       6.960   0.434  -1.830  0.00  0.00    -0.464 OA
BRANCH  19  21
ATOM     20  C   UNL     1       3.943  -0.671  -1.341  0.00  0.00    +0.048 C 
ATOM     21  C   UNL     1       5.481   0.022  -0.978  0.00  0.00    +0.229 C 
ENDBRANCH  19  21
ENDBRANCH  17  19
ENDBRANCH   1  17
BRANCH  11  22
ATOM     22  O   UNL     1      10.394   0.267  -6.178  0.00  0.00    -0.374 OA
ATOM     23  H   UNL     1      10.818  -0.011  -6.996  0.00  0.00    +0.212 HD
ENDBRANCH  11  22
BRANCH  15  24
ATOM     24  C   UNL     1      15.174   3.085  -6.719  0.00  0.00    -0.033 C 
ATOM     25  C   UNL     1      15.663   2.237  -7.687  0.00  0.00    +0.014 C 
BRANCH  24  26
ATOM     26  C   UNL     1      15.941   4.567  -7.112  0.00  0.00    +0.036 C 
BRANCH  26  27
ATOM     27  C   UNL     1      15.570   5.696  -8.208  0.00  0.00    +0.005 C 
BRANCH  27  28
ATOM     28  C   UNL     1      14.501   6.642  -7.695  0.00  0.00    +0.000 C 
BRANCH  28  29
ATOM     29  C   UNL     1      14.194   7.920  -8.506  0.00  0.00    +0.003 C 
BRANCH  29  30
ATOM     30  C   UNL     1      13.054   8.655  -7.785  0.00  0.00    +0.033 C 
BRANCH  30  31
ATOM     31  C   UNL     1      12.594   9.932  -8.459  0.00  0.00    +0.213 C 
ATOM     32  F   UNL     1      11.573  10.455  -7.722  0.00  0.00    -0.249 F 
ENDBRANCH  30  31
ENDBRANCH  29  30
ENDBRANCH  28  29
ENDBRANCH  27  28
ENDBRANCH  26  27
ENDBRANCH  24  26
ENDBRANCH  15  24
TORSDOF 11
