REMARK  Name = 
REMARK  21 active torsions:
REMARK  status: ('A' for Active; 'I' for Inactive)
REMARK    1  A    between atoms: C_2  and  C_3
REMARK    2  A    between atoms: C_4  and  C_5
REMARK    3  A    between atoms: C_6  and  N_7
REMARK    4  A    between atoms: N_7  and  C_8
REMARK    5  A    between atoms: N_7  and  C_9
REMARK    6  A    between atoms: C_9  and  O_10
REMARK    7  A    between atoms: C_9  and  C_11
REMARK    8  A    between atoms: C_11  and  C_12
REMARK    9  A    between atoms: C_13  and  C_14
REMARK   10  A    between atoms: C_14  and  C_16
REMARK   11  A    between atoms: C_17  and  C_18
REMARK   12  A    between atoms: N_20  and  C_21
REMARK   13  A    between atoms: C_22  and  C_23
REMARK   14  A    between atoms: C_23  and  C_24
REMARK   15  A    between atoms: C_23  and  C_35
REMARK   16  A    between atoms: C_25  and  C_26
REMARK   17  A    between atoms: C_27  and  C_28
REMARK   18  A    between atoms: C_29  and  C_30
REMARK   19  A    between atoms: C_31  and  C_32
REMARK   20  A    between atoms: C_35  and  C_36
REMARK   21  A    between atoms: N_38  and  C_39
REMARK                            x       y       z     vdW  Elec       q    Type
REMARK                         _______ _______ _______ _____ _____    ______ ____
ROOT
ATOM      1  C   UNL     1      16.259   3.728  -7.813  0.00  0.00    +0.052 C 
ATOM      2  C   UNL     1      17.553   3.596  -7.026  0.00  0.00    +0.104 C 
ATOM      3  N   UNL     1      17.470   4.082  -8.207  0.00  0.00    -0.280 N 
ENDROOT
BRANCH   3   4
ATOM      4  C   UNL     1      18.130   4.552  -9.287  0.00  0.00    +0.077 C 
ATOM      5  C   UNL     1      19.462   4.606  -9.294  0.00  0.00    -0.004 C 
BRANCH   5   6
ATOM      6  C   UNL     1      20.138   5.274 -10.363  0.00  0.00    +0.037 C 
BRANCH   6   7
ATOM      7  C   UNL     1      19.731   6.745 -10.436  0.00  0.00    -0.019 C 
ATOM      8  C   UNL     1      20.347   7.743  -9.794  0.00  0.00    -0.004 C 
BRANCH   8   9
ATOM      9  C   UNL     1      19.894   9.105  -9.778  0.00  0.00    -0.000 C 
ATOM     10  C   UNL     1      20.542  10.074  -9.117  0.00  0.00    -0.000 C 
BRANCH  10  11
ATOM     11  C   UNL     1      20.134  11.490  -9.113  0.00  0.00    +0.000 C 
ATOM     12  C   UNL     1      20.766  12.478  -8.457  0.00  0.00    +0.000 C 
BRANCH  12  13
ATOM     13  C   UNL     1      20.349  13.884  -8.473  0.00  0.00    +0.001 C 
ATOM     14  C   UNL     1      20.987  14.877  -7.815  0.00  0.00    +0.008 C 
BRANCH  14  15
ATOM     15  C   UNL     1      20.601  16.289  -7.806  0.00  0.00    +0.050 C 
ATOM     16  C   UNL     1      21.261  17.213  -7.148  0.00  0.00    -0.128 C 
ATOM     17  C   UNL     1      21.891  18.165  -6.498  0.00  0.00    +0.068 C 
ENDBRANCH  14  15
ENDBRANCH  12  13
ENDBRANCH  10  11
ENDBRANCH   8   9
ENDBRANCH   6   7
BRANCH   6  18
ATOM     18  C   UNL     1      21.625   5.125 -10.256  0.00  0.00    +0.032 C 
BRANCH  18  19
ATOM     19  C   UNL     1      22.373   5.798 -11.331  0.00  0.00    +0.071 C 
ATOM     20  C   UNL     1      22.224   5.478 -12.823  0.00  0.00    +0.103 C 
ATOM     21  N   UNL     1      23.482   5.202 -12.139  0.00  0.00    -0.300 NA
ATOM     22  C   UNL     1      23.902   3.825 -11.825  0.00  0.00    +0.105 C 
ENDBRANCH  18  19
ENDBRANCH   6  18
ENDBRANCH   5   6
ENDBRANCH   3   4
BRANCH   1  24
ATOM     23  C   UNL     1      14.529   3.543  -5.880  0.00  0.00    +0.009 C 
ATOM     24  C   UNL     1      15.162   3.275  -7.042  0.00  0.00    +0.025 C 
BRANCH  23  25
ATOM     25  C   UNL     1      13.300   2.778  -5.435  0.00  0.00    -0.032 C 
ATOM     26  C   UNL     1      12.402   3.437  -4.668  0.00  0.00    +0.017 C 
BRANCH  25  28
ATOM     27  C   UNL     1      13.949   0.425  -5.990  0.00  0.00    -0.022 C 
ATOM     28  C   UNL     1      13.002   1.363  -5.774  0.00  0.00    +0.003 C 
BRANCH  27  29
ATOM     29  C   UNL     1      13.601  -0.988  -6.359  0.00  0.00    +0.078 C 
BRANCH  29  30
ATOM     30  C   UNL     1      14.658  -1.978  -5.846  0.00  0.00    +0.206 C 
BRANCH  30  31
ATOM     31  N   UNL     1      15.988  -1.708  -6.398  0.00  0.00    -0.314 N 
ATOM     32  C   UNL     1      16.132  -1.778  -7.856  0.00  0.00    +0.131 C 
BRANCH  31  34
ATOM     33  C   UNL     1      18.159  -0.690  -5.952  0.00  0.00    +0.015 C 
ATOM     34  C   UNL     1      17.090  -1.433  -5.608  0.00  0.00    +0.072 C 
BRANCH  33  36
ATOM     35  C   UNL     1      20.370   0.374  -5.516  0.00  0.00    -0.001 C 
ATOM     36  C   UNL     1      19.320  -0.381  -5.112  0.00  0.00    +0.001 C 
BRANCH  35  38
ATOM     37  C   UNL     1      22.539   1.420  -5.094  0.00  0.00    +0.008 C 
ATOM     38  C   UNL     1      21.515   0.674  -4.676  0.00  0.00    -0.008 C 
ENDBRANCH  35  38
ENDBRANCH  33  36
ENDBRANCH  31  34
ENDBRANCH  30  31
BRANCH  30  39
ATOM     39  O   UNL     1      14.710  -1.907  -4.425  0.00  0.00    -0.374 OA
ATOM     40  H   UNL     1      14.982  -1.003  -4.199  0.00  0.00    +0.212 HD
ENDBRANCH  30  39
ENDBRANCH  29  30
ENDBRANCH  27  29
ENDBRANCH  25  28
ENDBRANCH  23  25
ENDBRANCH   1  24
TORSDOF 19
