REMARK  Name = 
REMARK  10 active torsions:
REMARK  status: ('A' for Active; 'I' for Inactive)
REMARK    1  A    between atoms: C_1  and  C_2
REMARK    2  A    between atoms: C_2  and  N_3
REMARK    3  A    between atoms: N_3  and  C_4
REMARK    4  A    between atoms: C_5  and  C_6
REMARK    5  A    between atoms: C_5  and  C_7
REMARK    6  A    between atoms: C_7  and  N_8
REMARK    7  A    between atoms: C_7  and  C_9
REMARK    8  A    between atoms: C_9  and  N_11
REMARK    9  A    between atoms: C_13  and  C_14
REMARK   10  A    between atoms: C_19  and  C_20
REMARK                            x       y       z     vdW  Elec       q    Type
REMARK                         _______ _______ _______ _____ _____    ______ ____
ROOT
ATOM      1  C   UNL     1       6.644  -2.283   4.247  0.00  0.00    +0.265 C 
ATOM      2  O   UNL     1       6.284  -1.814   5.329  0.00  0.00    -0.271 OA
ENDROOT
BRANCH   1   3
ATOM      3  N   UNL     1       7.397  -3.439   4.108  0.00  0.00    -0.135 NA
ATOM      4  C   UNL     1       8.086  -3.717   5.017  0.00  0.00    -0.021 C 
ATOM      5  C   UNL     1       8.864  -4.014   6.021  0.00  0.00    +0.078 C 
BRANCH   5   6
ATOM      6  C   UNL     1       9.925  -3.131   6.542  0.00  0.00    -0.008 A 
ATOM      7  C   UNL     1       9.799  -1.738   6.372  0.00  0.00    +0.009 A 
ATOM      8  C   UNL     1      10.717  -0.844   6.931  0.00  0.00    +0.001 A 
ATOM      9  C   UNL     1      11.780  -1.319   7.686  0.00  0.00    +0.001 A 
ATOM     10  C   UNL     1      11.935  -2.691   7.868  0.00  0.00    +0.010 A 
ATOM     11  C   UNL     1      11.028  -3.597   7.289  0.00  0.00    +0.000 A 
BRANCH  11  12
ATOM     12  C   UNL     1      11.337  -5.022   7.542  0.00  0.00    +0.109 C 
ATOM     13  N   UNL     1      11.112  -6.006   6.734  0.00  0.00    -0.307 NA
ATOM     14  H   UNL     1      10.714  -5.691   5.846  0.00  0.00    +0.186 HD
ENDBRANCH  11  12
ENDBRANCH   5   6
ENDBRANCH   1   3
BRANCH   1  15
ATOM     15  C   UNL     1       6.358  -1.545   2.893  0.00  0.00    +0.168 C 
BRANCH  15  17
ATOM     16  C   UNL     1       4.291  -1.920   1.547  0.00  0.00    +0.068 C 
ATOM     17  C   UNL     1       4.870  -1.346   2.620  0.00  0.00    -0.034 C 
ATOM     18  C   UNL     1       4.096  -0.494   3.597  0.00  0.00    +0.042 C 
BRANCH  16  19
ATOM     19  N   UNL     1       2.979  -1.849   1.156  0.00  0.00    -0.350 N 
ATOM     20  H   UNL     1       2.374  -1.224   1.678  0.00  0.00    +0.146 HD
BRANCH  19  22
ATOM     21  C   UNL     1       2.442  -1.443  -1.190  0.00  0.00    +0.024 C 
ATOM     22  C   UNL     1       2.387  -2.427  -0.035  0.00  0.00    +0.097 C 
ENDBRANCH  19  22
ENDBRANCH  16  19
ENDBRANCH  15  17
BRANCH  15  23
ATOM     23  N   UNL     1       7.080  -0.250   2.888  0.00  0.00    -0.316 NA
ATOM     24  H   UNL     1       6.728   0.313   3.663  0.00  0.00    +0.119 HD
ATOM     25  H   UNL     1       6.838   0.246   2.032  0.00  0.00    +0.119 HD
ENDBRANCH  15  23
ENDBRANCH   1  15
TORSDOF 8
