REMARK  Name = 
REMARK  9 active torsions:
REMARK  status: ('A' for Active; 'I' for Inactive)
REMARK    1  A    between atoms: C_2  and  C_3
REMARK    2  A    between atoms: C_12  and  C_13
REMARK    3  A    between atoms: C_14  and  C_15
REMARK    4  A    between atoms: C_16  and  C_17
REMARK    5  A    between atoms: C_17  and  C_18
REMARK    6  A    between atoms: C_18  and  C_19
REMARK    7  A    between atoms: C_20  and  C_21
REMARK    8  A    between atoms: C_20  and  C_22
REMARK    9  A    between atoms: C_22  and  C_25
REMARK                            x       y       z     vdW  Elec       q    Type
REMARK                         _______ _______ _______ _____ _____    ______ ____
ROOT
ATOM      1  C   UNL     1      -2.927  -1.894  -1.741  0.00  0.00    +0.004 C 
ATOM      2  C   UNL     1      -3.709  -2.829  -2.328  0.00  0.00    -0.000 C 
ENDROOT
BRANCH   1  14
ATOM      3  C   UNL     1      -0.636  -2.721  -2.653  0.00  0.00    +0.065 C 
ATOM      4  C   UNL     1       0.782  -2.435  -3.268  0.00  0.00    +0.059 C 
ATOM      5  C   UNL     1       2.000  -2.871  -2.450  0.00  0.00    +0.037 C 
ATOM      6  N   UNL     1       0.858  -3.003  -4.623  0.00  0.00    -0.340 N 
ATOM      7  C   UNL     1       0.744  -1.810  -5.178  0.00  0.00    +0.073 C 
ATOM      8  C   UNL     1       0.913  -1.134  -4.026  0.00  0.00    -0.011 C 
ATOM      9  C   UNL     1       0.813   0.229  -3.463  0.00  0.00    +0.007 C 
ATOM     10  C   UNL     1       1.215   0.294  -2.182  0.00  0.00    +0.008 C 
ATOM     11  C   UNL     1       0.248   0.201  -1.099  0.00  0.00    -0.032 C 
ATOM     12  C   UNL     1       0.563   0.872   0.026  0.00  0.00    +0.017 C 
ATOM     13  C   UNL     1      -1.025  -0.524  -1.187  0.00  0.00    +0.011 C 
ATOM     14  C   UNL     1      -1.428  -1.660  -1.829  0.00  0.00    -0.044 C 
ATOM     15  H   UNL     1       1.702  -3.547  -4.805  0.00  0.00    +0.146 HD
ENDBRANCH   1  14
BRANCH   2  16
ATOM     16  C   UNL     1      -5.178  -2.871  -2.219  0.00  0.00    -0.004 C 
ATOM     17  C   UNL     1      -5.964  -3.789  -2.826  0.00  0.00    -0.027 C 
BRANCH  17  18
ATOM     18  C   UNL     1      -7.493  -3.852  -2.752  0.00  0.00    +0.031 C 
BRANCH  18  19
ATOM     19  C   UNL     1      -8.101  -5.068  -3.497  0.00  0.00    +0.031 C 
BRANCH  19  20
ATOM     20  C   UNL     1      -9.620  -5.182  -3.481  0.00  0.00    -0.026 C 
ATOM     21  C   UNL     1     -10.412  -5.890  -2.641  0.00  0.00    -0.059 C 
ATOM     22  C   UNL     1      -9.853  -6.629  -1.442  0.00  0.00    +0.040 C 
BRANCH  21  23
ATOM     23  C   UNL     1     -11.884  -6.082  -2.852  0.00  0.00    +0.056 C 
ATOM     24  C   UNL     1     -12.761  -5.642  -1.789  0.00  0.00    -0.010 C 
ATOM     25  C   UNL     1     -12.754  -4.941  -2.918  0.00  0.00    -0.010 C 
BRANCH  23  26
ATOM     26  C   UNL     1     -12.313  -7.278  -3.576  0.00  0.00    +0.088 C 
ATOM     27  C   UNL     1     -12.235  -7.327  -4.876  0.00  0.00    +0.121 C 
ATOM     28  O   UNL     1     -12.177  -7.371  -6.044  0.00  0.00    -0.232 OA
ENDBRANCH  23  26
ENDBRANCH  21  23
ENDBRANCH  19  20
ENDBRANCH  18  19
ENDBRANCH  17  18
ENDBRANCH   2  16
TORSDOF 7
