REMARK  Name = 
REMARK  4 active torsions:
REMARK  status: ('A' for Active; 'I' for Inactive)
REMARK    1  A    between atoms: C_8  and  C_9
REMARK    2  A    between atoms: C_12  and  C_13
REMARK    3  A    between atoms: C_13  and  C_15
REMARK    4  A    between atoms: C_16  and  C_17
REMARK                            x       y       z     vdW  Elec       q    Type
REMARK                         _______ _______ _______ _____ _____    ______ ____
ROOT
ATOM      1  C   UNL     1      -1.211   0.696   0.328  0.00  0.00    -0.023 C 
ATOM      2  C   UNL     1      -0.159   1.463   0.006  0.00  0.00    -0.004 C 
ATOM      3  C   UNL     1       1.075   0.900  -0.487  0.00  0.00    -0.004 C 
ATOM      4  C   UNL     1       1.261  -0.425  -0.588  0.00  0.00    -0.022 C 
ATOM      5  C   UNL     1       0.239  -1.398  -0.060  0.00  0.00    +0.033 C 
ATOM      6  C   UNL     1      -1.182  -0.801   0.167  0.00  0.00    +0.024 C 
ATOM      7  C   UNL     1      -1.831  -1.612   1.312  0.00  0.00    +0.043 C 
ATOM      8  C   UNL     1      -0.036  -2.736  -0.779  0.00  0.00    +0.082 C 
ATOM      9  C   UNL     1      -0.767  -3.628   0.211  0.00  0.00    -0.012 C 
ATOM     10  C   UNL     1      -1.537  -3.110   1.203  0.00  0.00    -0.043 C 
ENDROOT
BRANCH   8  11
ATOM     11  C   UNL     1       1.221  -3.362  -1.344  0.00  0.00    +0.231 C 
ATOM     12  O   UNL     1       1.923  -4.185  -0.780  0.00  0.00    -0.300 OA
ENDBRANCH   8  11
BRANCH  10  13
ATOM     13  C   UNL     1      -2.022  -3.941   2.309  0.00  0.00    -0.029 C 
ATOM     14  C   UNL     1      -1.107  -4.492   3.132  0.00  0.00    +0.017 C 
BRANCH  13  15
ATOM     15  C   UNL     1      -3.423  -4.090   2.682  0.00  0.00    +0.006 C 
ATOM     16  C   UNL     1      -4.452  -4.073   1.822  0.00  0.00    +0.007 C 
BRANCH  16  17
ATOM     17  C   UNL     1      -5.877  -4.272   2.224  0.00  0.00    +0.241 C 
ATOM     18  F   UNL     1      -6.005  -4.458   3.567  0.00  0.00    -0.245 F 
ENDBRANCH  16  17
ENDBRANCH  13  15
ENDBRANCH  10  13
TORSDOF 4
