REMARK  Name = 
REMARK  3 active torsions:
REMARK  status: ('A' for Active; 'I' for Inactive)
REMARK    1  A    between atoms: C_2  and  C_3
REMARK    2  A    between atoms: C_4  and  C_5
REMARK    3  A    between atoms: C_4  and  C_6
REMARK                            x       y       z     vdW  Elec       q    Type
REMARK                         _______ _______ _______ _____ _____    ______ ____
ROOT
ATOM      1  C   UNL     1       3.105  -0.007   1.273  0.00  0.00    +0.006 C 
ATOM      2  C   UNL     1       4.452  -0.006   1.251  0.00  0.00    -0.011 C 
ATOM      3  C   UNL     1       5.355   0.065   0.058  0.00  0.00    +0.047 C 
ENDROOT
BRANCH   1   5
ATOM      4  C   UNL     1       0.908   0.057   0.188  0.00  0.00    +0.008 C 
ATOM      5  C   UNL     1       2.245   0.061   0.112  0.00  0.00    -0.007 C 
ENDBRANCH   1   5
BRANCH   2   6
ATOM      6  C   UNL     1       5.147  -0.083   2.569  0.00  0.00    +0.254 C 
ATOM      7  O   UNL     1       6.369  -0.089   2.673  0.00  0.00    -0.296 OA
ENDBRANCH   2   6
TORSDOF 2
