REMARK  Name = 
REMARK  0 active torsions:
REMARK  status: ('A' for Active; 'I' for Inactive)
REMARK                            x       y       z     vdW  Elec       q    Type
REMARK                         _______ _______ _______ _____ _____    ______ ____
ROOT
ATOM      1  C   UNL     1       2.897  -0.750   1.328  0.00  0.00    +0.040 C 
ATOM      2  C   UNL     1       4.318  -1.471   1.525  0.00  0.00    +0.040 C 
ATOM      3  C   UNL     1       4.877  -2.059   0.131  0.00  0.00    -0.039 A 
ATOM      4  C   UNL     1       4.397  -3.353  -0.141  0.00  0.00    +0.004 A 
ATOM      5  C   UNL     1       3.239  -3.455  -0.904  0.00  0.00    +0.001 A 
ATOM      6  C   UNL     1       2.609  -2.265  -1.266  0.00  0.00    +0.009 A 
ATOM      7  C   UNL     1       3.280  -1.048  -1.031  0.00  0.00    -0.014 A 
ATOM      8  C   UNL     1       4.630  -1.076  -0.825  0.00  0.00    -0.014 A 
ATOM      9  C   UNL     1       5.329   0.148  -0.798  0.00  0.00    +0.009 A 
ATOM     10  C   UNL     1       4.607   1.324  -0.599  0.00  0.00    +0.001 A 
ATOM     11  C   UNL     1       3.274   1.194  -0.224  0.00  0.00    +0.004 A 
ATOM     12  C   UNL     1       2.753  -0.108  -0.148  0.00  0.00    -0.039 A 
ENDROOT
TORSDOF 0
