REMARK  Name = 
REMARK  3 active torsions:
REMARK  status: ('A' for Active; 'I' for Inactive)
REMARK    1  A    between atoms: C_1  and  C_2
REMARK    2  A    between atoms: C_3  and  C_4
REMARK    3  A    between atoms: C_5  and  C_6
REMARK                            x       y       z     vdW  Elec       q    Type
REMARK                         _______ _______ _______ _____ _____    ______ ____
ROOT
ATOM      1  C   UNL     1       2.846   2.393   0.605  0.00  0.00    +0.108 C 
ATOM      2  C   UNL     1       1.496   3.059   1.050  0.00  0.00    +0.080 C 
ATOM      3  N   UNL     1       4.074   3.238   0.447  0.00  0.00    -0.308 N 
ATOM      4  C   UNL     1       4.081   4.346  -0.523  0.00  0.00    +0.121 C 
ATOM      5  C   UNL     1       5.391   2.829   0.749  0.00  0.00    +0.114 C 
ATOM      6  C   UNL     1       5.797   1.554   0.864  0.00  0.00    +0.055 C 
ATOM      7  N   UNL     1       6.423   3.736   0.836  0.00  0.00    -0.245 NA
ATOM      8  C   UNL     1       6.168   4.975   0.545  0.00  0.00    +0.095 C 
ATOM      9  C   UNL     1       4.830   5.519   0.098  0.00  0.00    +0.078 C 
ATOM     10  C   UNL     1       4.134   6.141   1.291  0.00  0.00    +0.034 C 
ATOM     11  C   UNL     1       2.861   5.956   1.497  0.00  0.00    -0.128 C 
ATOM     12  C   UNL     1       1.624   5.571   1.554  0.00  0.00    +0.025 C 
ATOM     13  C   UNL     1       1.061   4.486   0.672  0.00  0.00    +0.048 C 
ENDROOT
BRANCH   1  16
ATOM     14  C   UNL     1       3.974   1.082  -2.687  0.00  0.00    +0.035 C 
ATOM     15  C   UNL     1       2.956   1.752  -1.822  0.00  0.00    -0.033 C 
ATOM     16  C   UNL     1       2.851   1.396  -0.537  0.00  0.00    -0.009 C 
ENDBRANCH   1  16
BRANCH   2  17
ATOM     17  C   UNL     1       0.341   2.182   0.625  0.00  0.00    +0.229 C 
ATOM     18  O   UNL     1      -0.509   1.751   1.406  0.00  0.00    -0.301 OA
ENDBRANCH   2  17
TORSDOF 2
