REMARK  Name = 
REMARK  2 active torsions:
REMARK  status: ('A' for Active; 'I' for Inactive)
REMARK    1  A    between atoms: C_1  and  C_2
REMARK    2  A    between atoms: C_9  and  C_11
REMARK                            x       y       z     vdW  Elec       q    Type
REMARK                         _______ _______ _______ _____ _____    ______ ____
ROOT
ATOM      1  C   UNL     1       1.872   0.841   4.870  0.00  0.00    +0.016 C 
ATOM      2  C   UNL     1       2.119   2.116   5.260  0.00  0.00    -0.017 C 
ATOM      3  C   UNL     1       1.664   2.463   6.615  0.00  0.00    +0.004 C 
ATOM      4  C   UNL     1       2.129   3.544   7.256  0.00  0.00    -0.022 C 
ATOM      5  C   UNL     1       3.123   4.491   6.654  0.00  0.00    +0.063 C 
ATOM      6  C   UNL     1       3.542   4.161   5.237  0.00  0.00    -0.036 A 
ATOM      7  C   UNL     1       2.921   3.123   4.510  0.00  0.00    -0.014 A 
ATOM      8  C   UNL     1       3.113   3.082   3.125  0.00  0.00    +0.009 A 
ATOM      9  C   UNL     1       4.082   3.873   2.512  0.00  0.00    +0.001 A 
ATOM     10  C   UNL     1       4.819   4.777   3.267  0.00  0.00    +0.000 A 
ATOM     11  C   UNL     1       4.516   4.957   4.614  0.00  0.00    +0.004 A 
ENDROOT
BRANCH   1  20
ATOM     12  C   UNL     1       1.316   0.118  -0.283  0.00  0.00    +0.039 C 
ATOM     13  C   UNL     1       2.098  -1.013   0.321  0.00  0.00    -0.069 C 
ATOM     14  C   UNL     1       1.905  -2.365   0.289  0.00  0.00    -0.023 C 
ATOM     15  C   UNL     1       2.665  -2.462   1.638  0.00  0.00    +0.026 C 
ATOM     16  C   UNL     1       1.678  -2.370   2.810  0.00  0.00    +0.036 C 
ATOM     17  C   UNL     1       3.438  -1.257   1.024  0.00  0.00    +0.044 C 
ATOM     18  C   UNL     1       4.098  -0.352   1.979  0.00  0.00    -0.018 C 
ATOM     19  C   UNL     1       3.640   0.068   3.166  0.00  0.00    +0.004 C 
ATOM     20  C   UNL     1       2.308  -0.009   3.732  0.00  0.00    -0.029 C 
ATOM     21  C   UNL     1       1.479  -1.051   3.498  0.00  0.00    -0.018 C 
ENDBRANCH   1  20
TORSDOF 1
