REMARK  Name = 
REMARK  20 active torsions:
REMARK  status: ('A' for Active; 'I' for Inactive)
REMARK    1  A    between atoms: C_1  and  C_2
REMARK    2  A    between atoms: C_2  and  C_3
REMARK    3  A    between atoms: C_2  and  C_5
REMARK    4  A    between atoms: C_6  and  C_7
REMARK    5  A    between atoms: C_7  and  C_8
REMARK    6  A    between atoms: C_7  and  C_13
REMARK    7  A    between atoms: C_9  and  C_10
REMARK    8  A    between atoms: C_10  and  C_11
REMARK    9  A    between atoms: C_13  and  O_14
REMARK   10  A    between atoms: O_14  and  C_15
REMARK   11  A    between atoms: C_15  and  C_16
REMARK   12  A    between atoms: C_15  and  C_17
REMARK   13  A    between atoms: C_15  and  C_27
REMARK   14  A    between atoms: C_17  and  N_18
REMARK   15  A    between atoms: N_18  and  C_19
REMARK   16  A    between atoms: C_19  and  C_20
REMARK   17  A    between atoms: C_21  and  C_22
REMARK   18  A    between atoms: C_23  and  C_24
REMARK   19  A    between atoms: C_25  and  C_26
REMARK   20  A    between atoms: C_27  and  C_28
REMARK                            x       y       z     vdW  Elec       q    Type
REMARK                         _______ _______ _______ _____ _____    ______ ____
ROOT
ATOM      1  C   UNL     1       8.434   3.706  -2.349  0.00  0.00    +0.083 C 
ATOM      2  C   UNL     1       8.975   3.821  -0.897  0.00  0.00    +0.043 C 
ENDROOT
BRANCH   1   3
ATOM      3  O   UNL     1       6.958   3.765  -2.354  0.00  0.00    -0.371 OA
BRANCH   3   4
ATOM      4  C   UNL     1       6.316   2.738  -1.614  0.00  0.00    +0.172 C 
BRANCH   4   5
ATOM      5  C   UNL     1       4.793   2.728  -1.617  0.00  0.00    +0.059 C 
BRANCH   5   6
ATOM      6  C   UNL     1       4.262   3.997  -1.052  0.00  0.00    -0.021 C 
ATOM      7  C   UNL     1       3.100   4.497  -1.474  0.00  0.00    -0.026 C 
BRANCH   7   8
ATOM      8  C   UNL     1       2.498   5.729  -0.885  0.00  0.00    +0.053 C 
BRANCH   8   9
ATOM      9  C   UNL     1       2.291   6.783  -1.920  0.00  0.00    -0.030 C 
ATOM     10  C   UNL     1       1.078   7.267  -2.213  0.00  0.00    +0.004 C 
ENDBRANCH   8   9
ENDBRANCH   7   8
ENDBRANCH   5   6
BRANCH   5  12
ATOM     11  C   UNL     1       3.616   0.510  -1.260  0.00  0.00    -0.020 C 
ATOM     12  C   UNL     1       4.335   1.535  -0.781  0.00  0.00    -0.021 C 
BRANCH  11  14
ATOM     13  C   UNL     1       1.566  -0.669  -0.514  0.00  0.00    +0.019 C 
ATOM     14  C   UNL     1       3.091  -0.642  -0.437  0.00  0.00    +0.071 C 
BRANCH  14  15
ATOM     15  C   UNL     1       3.653  -1.954  -0.970  0.00  0.00    +0.230 C 
ATOM     16  O   UNL     1       3.113  -2.632  -1.842  0.00  0.00    -0.300 OA
ENDBRANCH  14  15
ENDBRANCH  11  14
ENDBRANCH   5  12
ENDBRANCH   4   5
ENDBRANCH   3   4
ENDBRANCH   1   3
BRANCH   1  17
ATOM     17  C   UNL     1       9.028   2.407  -3.054  0.00  0.00    +0.116 C 
BRANCH  17  18
ATOM     18  N   UNL     1       8.625   1.125  -2.434  0.00  0.00    -0.310 NA
ATOM     19  H   UNL     1       7.645   1.006  -2.639  0.00  0.00    +0.122 HD
BRANCH  18  20
ATOM     20  C   UNL     1       9.112  -0.091  -3.066  0.00  0.00    +0.108 C 
BRANCH  20  21
ATOM     21  C   UNL     1       8.519  -1.254  -2.305  0.00  0.00    -0.012 C 
ATOM     22  C   UNL     1       7.721  -2.179  -2.870  0.00  0.00    -0.003 C 
BRANCH  22  23
ATOM     23  C   UNL     1       7.169  -3.317  -2.169  0.00  0.00    -0.000 C 
ATOM     24  C   UNL     1       6.391  -4.221  -2.787  0.00  0.00    -0.000 C 
BRANCH  24  25
ATOM     25  C   UNL     1       5.848  -5.390  -2.138  0.00  0.00    -0.005 C 
ATOM     26  C   UNL     1       5.069  -6.279  -2.777  0.00  0.00    -0.030 C 
ATOM     27  C   UNL     1       4.501  -7.501  -2.132  0.00  0.00    +0.035 C 
ENDBRANCH  24  25
ENDBRANCH  22  23
ENDBRANCH  20  21
ENDBRANCH  18  20
ENDBRANCH  17  18
ENDBRANCH   1  17
BRANCH   1  28
ATOM     28  C   UNL     1       8.883   5.015  -3.104  0.00  0.00    +0.069 C 
BRANCH  28  29
ATOM     29  C   UNL     1       8.436   5.191  -4.529  0.00  0.00    -0.031 C 
ATOM     30  C   UNL     1       7.691   6.170  -5.032  0.00  0.00    +0.016 C 
ATOM     31  C   UNL     1       7.255   4.829  -5.232  0.00  0.00    +0.215 C 
ATOM     32  F   UNL     1       7.354   4.337  -6.521  0.00  0.00    -0.236 F 
ENDBRANCH  28  29
ENDBRANCH   1  28
TORSDOF 17
