REMARK  Name = 
REMARK  3 active torsions:
REMARK  status: ('A' for Active; 'I' for Inactive)
REMARK    1  A    between atoms: C_4  and  C_7
REMARK    2  A    between atoms: C_8  and  N_9
REMARK    3  A    between atoms: C_18  and  C_19
REMARK                            x       y       z     vdW  Elec       q    Type
REMARK                         _______ _______ _______ _____ _____    ______ ____
ROOT
ATOM      1  N   UNL     1       3.945  -1.160  -1.419  0.00  0.00    -0.223 N 
ATOM      2  C   UNL     1       4.161  -1.453  -2.817  0.00  0.00    +0.058 C 
ATOM      3  C   UNL     1       2.903  -1.573  -3.360  0.00  0.00    +0.027 C 
ATOM      4  C   UNL     1       2.013  -2.530  -2.593  0.00  0.00    +0.023 C 
ATOM      5  C   UNL     1       2.704  -3.278  -1.671  0.00  0.00    +0.041 C 
ATOM      6  N   UNL     1       3.830  -2.525  -0.903  0.00  0.00    -0.226 N 
ATOM      7  C   UNL     1       5.112  -3.061  -1.324  0.00  0.00    +0.103 C 
ATOM      8  C   UNL     1       5.069  -2.801  -2.673  0.00  0.00    -0.008 C 
ATOM      9  C   UNL     1       4.445  -4.055  -3.309  0.00  0.00    +0.055 C 
ATOM     10  C   UNL     1       3.268  -4.571  -2.376  0.00  0.00    +0.102 C 
ENDROOT
BRANCH   1  12
ATOM     11  C   UNL     1       5.335   0.872  -1.325  0.00  0.00    +0.021 C 
ATOM     12  C   UNL     1       4.659  -0.151  -0.767  0.00  0.00    +0.098 C 
BRANCH  11  16
ATOM     13  C   UNL     1       8.125   3.610   0.500  0.00  0.00    -0.026 C 
ATOM     14  C   UNL     1       7.702   3.753  -0.762  0.00  0.00    -0.004 C 
ATOM     15  C   UNL     1       6.820   2.786  -1.370  0.00  0.00    +0.003 C 
ATOM     16  C   UNL     1       6.215   1.816  -0.655  0.00  0.00    -0.046 C 
ATOM     17  C   UNL     1       6.478   1.676   0.827  0.00  0.00    +0.039 C 
ATOM     18  C   UNL     1       7.701   2.453   1.354  0.00  0.00    +0.032 C 
ENDBRANCH  11  16
ENDBRANCH   1  12
BRANCH  10  19
ATOM     19  C   UNL     1       2.325  -5.386  -3.250  0.00  0.00    +0.233 C 
ATOM     20  O   UNL     1       1.116  -5.500  -3.075  0.00  0.00    -0.300 OA
ENDBRANCH  10  19
TORSDOF 3
