REMARK  Name = 
REMARK  13 active torsions:
REMARK  status: ('A' for Active; 'I' for Inactive)
REMARK    1  A    between atoms: C_1  and  C_2
REMARK    2  A    between atoms: C_2  and  C_3
REMARK    3  A    between atoms: C_2  and  C_4
REMARK    4  A    between atoms: C_2  and  C_20
REMARK    5  A    between atoms: C_4  and  C_5
REMARK    6  A    between atoms: C_5  and  N_6
REMARK    7  A    between atoms: N_8  and  C_9
REMARK    8  A    between atoms: C_10  and  C_11
REMARK    9  A    between atoms: C_11  and  C_12
REMARK   10  A    between atoms: C_11  and  C_13
REMARK   11  A    between atoms: C_14  and  N_15
REMARK   12  A    between atoms: C_16  and  C_17
REMARK   13  A    between atoms: C_16  and  C_18
REMARK                            x       y       z     vdW  Elec       q    Type
REMARK                         _______ _______ _______ _____ _____    ______ ____
ROOT
ATOM      1  C   UNL     1       3.094  -3.221  -6.293  0.00  0.00    +0.119 C 
ATOM      2  C   UNL     1       2.808  -4.218  -7.151  0.00  0.00    +0.001 C 
ENDROOT
BRANCH   1   5
ATOM      3  N   UNL     1       3.117  -1.255  -3.774  0.00  0.00    -0.224 NA
ATOM      4  C   UNL     1       2.785  -2.163  -4.449  0.00  0.00    +0.095 C 
ATOM      5  N   UNL     1       2.430  -3.077  -5.096  0.00  0.00    -0.195 NA
BRANCH   3   6
ATOM      6  C   UNL     1       2.559  -1.278  -2.402  0.00  0.00    +0.154 C 
BRANCH   6   7
ATOM      7  C   UNL     1       3.030  -0.034  -1.621  0.00  0.00    +0.034 C 
BRANCH   7   9
ATOM      8  C   UNL     1       3.017  -1.128   0.685  0.00  0.00    +0.015 C 
ATOM      9  C   UNL     1       2.508   0.067  -0.150  0.00  0.00    -0.015 C 
ATOM     10  C   UNL     1       3.063   1.349   0.516  0.00  0.00    +0.015 C 
BRANCH   9  11
ATOM     11  C   UNL     1       0.986   0.100  -0.074  0.00  0.00    -0.028 C 
ATOM     12  C   UNL     1       0.196   1.006  -0.666  0.00  0.00    +0.004 C 
ENDBRANCH   9  11
ENDBRANCH   7   9
ENDBRANCH   6   7
ENDBRANCH   3   6
ENDBRANCH   1   5
BRANCH   2  13
ATOM     13  C   UNL     1       3.528  -4.462  -8.463  0.00  0.00    +0.034 C 
ATOM     14  C   UNL     1       4.171  -5.854  -8.473  0.00  0.00    +0.016 C 
BRANCH  13  15
ATOM     15  C   UNL     1       2.604  -4.308  -9.654  0.00  0.00    -0.000 C 
ATOM     16  C   UNL     1       2.822  -3.428 -10.644  0.00  0.00    +0.107 C 
BRANCH  16  17
ATOM     17  N   UNL     1       2.018  -3.331 -11.745  0.00  0.00    -0.260 NA
ATOM     18  C   UNL     1       1.891  -2.195 -12.378  0.00  0.00    +0.038 C 
ATOM     19  C   UNL     1       2.515  -0.871 -11.976  0.00  0.00    +0.065 C 
BRANCH  18  20
ATOM     20  C   UNL     1       1.034  -2.201 -13.612  0.00  0.00    +0.015 C 
ATOM     21  C   UNL     1       0.775  -1.125 -14.368  0.00  0.00    +0.010 C 
ENDBRANCH  18  20
ENDBRANCH  16  17
ENDBRANCH  13  15
ENDBRANCH   2  13
TORSDOF 9
