REMARK  Name = 
REMARK  1 active torsions:
REMARK  status: ('A' for Active; 'I' for Inactive)
REMARK    1  A    between atoms: C_4  and  C_5
REMARK                            x       y       z     vdW  Elec       q    Type
REMARK                         _______ _______ _______ _____ _____    ______ ____
ROOT
ATOM      1  C   UNL     1      -0.943   0.182   0.224  0.00  0.00    -0.032 C 
ATOM      2  C   UNL     1      -0.171   1.277   0.176  0.00  0.00    +0.005 C 
ATOM      3  C   UNL     1       1.210   1.015  -0.114  0.00  0.00    +0.000 C 
ATOM      4  C   UNL     1       1.406  -0.311  -0.109  0.00  0.00    -0.061 C 
ATOM      5  C   UNL     1       2.766  -0.933  -0.182  0.00  0.00    +0.040 C 
ATOM      6  C   UNL     1       0.221  -1.120   0.279  0.00  0.00    +0.074 C 
ATOM      7  C   UNL     1      -1.088  -1.132  -0.081  0.00  0.00    -0.039 C 
ATOM      8  C   UNL     1      -2.115  -1.943  -0.302  0.00  0.00    +0.013 C 
ENDROOT
TORSDOF 0
