REMARK  Name = 
REMARK  8 active torsions:
REMARK  status: ('A' for Active; 'I' for Inactive)
REMARK    1  A    between atoms: C_14  and  C_15
REMARK    2  A    between atoms: C_14  and  C_26
REMARK    3  A    between atoms: C_15  and  C_16
REMARK    4  A    between atoms: C_16  and  N_17
REMARK    5  A    between atoms: C_19  and  C_20
REMARK    6  A    between atoms: C_19  and  C_25
REMARK    7  A    between atoms: C_21  and  C_22
REMARK    8  A    between atoms: C_23  and  C_24
REMARK                            x       y       z     vdW  Elec       q    Type
REMARK                         _______ _______ _______ _____ _____    ______ ____
ROOT
ATOM      1  C   UNL     1       4.837  -0.734  -2.181  0.00  0.00    +0.004 C 
ATOM      2  C   UNL     1       5.422  -1.932  -1.881  0.00  0.00    +0.010 C 
ATOM      3  C   UNL     1       5.535  -2.847  -0.661  0.00  0.00    +0.000 A 
ATOM      4  C   UNL     1       5.461  -4.237  -0.855  0.00  0.00    +0.011 A 
ATOM      5  C   UNL     1       5.594  -5.130   0.213  0.00  0.00    +0.020 A 
ATOM      6  C   UNL     1       5.845  -4.624   1.481  0.00  0.00    +0.111 A 
ATOM      7  N   UNL     1       5.868  -3.313   1.743  0.00  0.00    -0.255 NA
ATOM      8  C   UNL     1       5.640  -2.479   0.698  0.00  0.00    +0.071 A 
ATOM      9  C   UNL     1       5.396  -1.124   1.129  0.00  0.00    +0.032 C 
ATOM     10  C   UNL     1       4.264  -0.537   0.695  0.00  0.00    -0.036 C 
ATOM     11  C   UNL     1       4.608   0.597  -0.193  0.00  0.00    +0.008 C 
ATOM     12  C   UNL     1       4.039   0.191  -1.338  0.00  0.00    -0.046 C 
ATOM     13  C   UNL     1       2.614  -0.167  -0.966  0.00  0.00    +0.049 C 
ATOM     14  C   UNL     1       2.849  -1.117   0.218  0.00  0.00    +0.030 C 
ENDROOT
BRANCH  14  15
ATOM     15  C   UNL     1       1.968  -0.918   1.457  0.00  0.00    +0.225 C 
ATOM     16  F   UNL     1       0.665  -1.163   1.179  0.00  0.00    -0.248 F 
ENDBRANCH  14  15
BRANCH  14  17
ATOM     17  C   UNL     1       2.571  -2.566  -0.360  0.00  0.00    +0.038 C 
BRANCH  17  18
ATOM     18  C   UNL     1       1.150  -2.893  -0.906  0.00  0.00    +0.153 C 
BRANCH  18  19
ATOM     19  N   UNL     1       1.207  -4.178  -1.656  0.00  0.00    -0.241 NA
ATOM     20  C   UNL     1       1.110  -4.150  -2.830  0.00  0.00    -0.015 C 
ATOM     21  C   UNL     1       1.030  -4.219  -4.134  0.00  0.00    +0.010 C 
ATOM     22  C   UNL     1      -0.151  -3.707  -4.913  0.00  0.00    +0.054 C 
BRANCH  21  23
ATOM     23  C   UNL     1       2.093  -4.914  -4.871  0.00  0.00    +0.013 C 
ATOM     24  C   UNL     1       2.178  -5.055  -6.204  0.00  0.00    +0.001 C 
BRANCH  24  25
ATOM     25  C   UNL     1       3.258  -5.740  -6.883  0.00  0.00    -0.004 C 
ATOM     26  C   UNL     1       3.333  -5.818  -8.222  0.00  0.00    -0.030 C 
ATOM     27  C   UNL     1       4.447  -6.476  -8.972  0.00  0.00    +0.035 C 
ENDBRANCH  24  25
ENDBRANCH  21  23
ENDBRANCH  18  19
ENDBRANCH  17  18
ENDBRANCH  14  17
TORSDOF 6
