REMARK  Name = 
REMARK  5 active torsions:
REMARK  status: ('A' for Active; 'I' for Inactive)
REMARK    1  A    between atoms: C_1  and  C_2
REMARK    2  A    between atoms: C_2  and  C_3
REMARK    3  A    between atoms: C_9  and  C_13
REMARK    4  A    between atoms: N_11  and  C_12
REMARK    5  A    between atoms: C_13  and  C_14
REMARK                            x       y       z     vdW  Elec       q    Type
REMARK                         _______ _______ _______ _____ _____    ______ ____
ROOT
ATOM      1  C   UNL     1       3.971  -0.342   1.740  0.00  0.00    -0.023 C 
ATOM      2  C   UNL     1       5.115  -0.406   2.451  0.00  0.00    -0.038 C 
ATOM      3  C   UNL     1       6.416   0.369   2.237  0.00  0.00    +0.086 C 
ATOM      4  C   UNL     1       5.180  -1.378   3.541  0.00  0.00    +0.054 C 
ATOM      5  C   UNL     1       6.322  -1.976   3.628  0.00  0.00    -0.123 C 
ATOM      6  C   UNL     1       7.543  -2.266   3.308  0.00  0.00    +0.033 C 
ATOM      7  C   UNL     1       8.196  -1.704   2.046  0.00  0.00    +0.064 C 
ATOM      8  C   UNL     1       7.508  -0.398   1.431  0.00  0.00    +0.025 C 
ATOM      9  N   UNL     1       7.916  -0.026   0.259  0.00  0.00    -0.295 NA
ATOM     10  C   UNL     1       7.345   1.165  -0.359  0.00  0.00    +0.170 C 
ENDROOT
BRANCH   1  12
ATOM     11  C   UNL     1       3.738  -0.454  -0.723  0.00  0.00    +0.008 C 
ATOM     12  C   UNL     1       3.645   0.442   0.507  0.00  0.00    +0.024 C 
ENDBRANCH   1  12
BRANCH   7  13
ATOM     13  C   UNL     1       9.713  -1.494   2.293  0.00  0.00    +0.017 C 
BRANCH  13  14
ATOM     14  C   UNL     1      10.461  -2.782   2.609  0.00  0.00    -0.010 C 
ATOM     15  C   UNL     1      11.935  -2.726   2.926  0.00  0.00    +0.004 C 
ATOM     16  C   UNL     1      11.467  -3.383   1.660  0.00  0.00    +0.004 C 
ENDBRANCH  13  14
ENDBRANCH   7  13
TORSDOF 3
