REMARK  Name = 
REMARK  2 active torsions:
REMARK  status: ('A' for Active; 'I' for Inactive)
REMARK    1  A    between atoms: C_2  and  C_3
REMARK    2  A    between atoms: C_3  and  C_5
REMARK                            x       y       z     vdW  Elec       q    Type
REMARK                         _______ _______ _______ _____ _____    ______ ____
ROOT
ATOM      1  C   UNL     1       3.002  -1.216  -0.660  0.00  0.00    +0.007 C 
ATOM      2  C   UNL     1       2.407  -2.278  -1.226  0.00  0.00    +0.020 C 
ENDROOT
BRANCH   1   4
ATOM      3  C   UNL     1       1.083   0.335  -0.377  0.00  0.00    +0.009 C 
ATOM      4  C   UNL     1       2.286  -0.130  -0.014  0.00  0.00    +0.003 C 
ENDBRANCH   1   4
BRANCH   1   5
ATOM      5  C   UNL     1       4.500  -1.206  -0.628  0.00  0.00    +0.258 C 
ATOM      6  O   UNL     1       5.207  -2.086  -1.108  0.00  0.00    -0.296 OA
ENDBRANCH   1   5
TORSDOF 2
