REMARK  Name = 
REMARK  16 active torsions:
REMARK  status: ('A' for Active; 'I' for Inactive)
REMARK    1  A    between atoms: C_1  and  C_2
REMARK    2  A    between atoms: C_2  and  N_3
REMARK    3  A    between atoms: N_3  and  C_4
REMARK    4  A    between atoms: C_5  and  C_6
REMARK    5  A    between atoms: C_6  and  C_7
REMARK    6  A    between atoms: C_7  and  C_8
REMARK    7  A    between atoms: C_7  and  C_9
REMARK    8  A    between atoms: C_10  and  C_11
REMARK    9  A    between atoms: C_11  and  N_12
REMARK   10  A    between atoms: C_11  and  C_13
REMARK   11  A    between atoms: C_13  and  C_14
REMARK   12  A    between atoms: C_13  and  C_15
REMARK   13  A    between atoms: C_13  and  C_17
REMARK   14  A    between atoms: C_17  and  O_20
REMARK   15  A    between atoms: C_18  and  C_19
REMARK   16  A    between atoms: O_20  and  N_21
REMARK                            x       y       z     vdW  Elec       q    Type
REMARK                         _______ _______ _______ _____ _____    ______ ____
ROOT
ATOM      1  C   UNL     1       9.910  -4.688  -4.489  0.00  0.00    +0.091 C 
ENDROOT
BRANCH   1   2
ATOM      2  N   UNL     1      10.473  -4.794  -3.125  0.00  0.00    -0.323 NA
ATOM      3  H   UNL     1       9.976  -5.520  -2.619  0.00  0.00    +0.119 HD
ATOM      4  H   UNL     1      10.289  -3.926  -2.627  0.00  0.00    +0.119 HD
ENDBRANCH   1   2
BRANCH   1   6
ATOM      5  C   UNL     1       7.897  -3.401  -3.744  0.00  0.00    -0.026 C 
ATOM      6  C   UNL     1       8.414  -4.508  -4.308  0.00  0.00    -0.011 C 
BRANCH   5   7
ATOM      7  C   UNL     1       6.429  -3.154  -3.517  0.00  0.00    +0.012 C 
ATOM      8  C   UNL     1       5.878  -2.391  -4.722  0.00  0.00    +0.012 C 
BRANCH   7   9
ATOM      9  C   UNL     1       6.233  -2.391  -2.189  0.00  0.00    +0.035 C 
BRANCH   9  11
ATOM     10  C   UNL     1       4.246  -0.926  -1.754  0.00  0.00    +0.063 C 
ATOM     11  C   UNL     1       4.786  -2.143  -1.877  0.00  0.00    -0.012 C 
BRANCH  10  12
ATOM     12  N   UNL     1       2.926  -0.675  -1.517  0.00  0.00    -0.350 N 
ATOM     13  H   UNL     1       2.307  -1.481  -1.547  0.00  0.00    +0.146 HD
BRANCH  12  15
ATOM     14  C   UNL     1       0.814   0.494  -1.268  0.00  0.00    +0.024 C 
ATOM     15  C   UNL     1       2.313   0.636  -1.469  0.00  0.00    +0.097 C 
ENDBRANCH  12  15
ENDBRANCH  10  12
ENDBRANCH   9  11
ENDBRANCH   7   9
ENDBRANCH   5   7
ENDBRANCH   1   6
BRANCH   1  16
ATOM     16  C   UNL     1      10.398  -5.859  -5.445  0.00  0.00    +0.064 C 
ATOM     17  C   UNL     1       9.973  -7.219  -4.812  0.00  0.00    +0.025 C 
BRANCH  16  18
ATOM     18  C   UNL     1      11.949  -5.939  -5.697  0.00  0.00    +0.132 C 
ATOM     19  C   UNL     1      12.948  -5.117  -5.293  0.00  0.00    +0.014 C 
ATOM     20  C   UNL     1      13.008  -3.882  -4.455  0.00  0.00    +0.039 C 
BRANCH  18  21
ATOM     21  O   UNL     1      12.239  -7.053  -6.513  0.00  0.00    -0.413 OA
BRANCH  21  22
ATOM     22  N   UNL     1      13.529  -7.638  -6.167  0.00  0.00    -0.169 NA
ATOM     23  H   UNL     1      13.755  -8.103  -7.044  0.00  0.00    +0.163 HD
ATOM     24  H   UNL     1      13.239  -8.367  -5.518  0.00  0.00    +0.163 HD
ENDBRANCH  21  22
ENDBRANCH  18  21
ENDBRANCH  16  18
BRANCH  16  25
ATOM     25  C   UNL     1       9.678  -5.771  -6.810  0.00  0.00    -0.019 C 
ATOM     26  C   UNL     1       9.819  -4.799  -7.724  0.00  0.00    +0.005 C 
ENDBRANCH  16  25
ENDBRANCH   1  16
TORSDOF 12
