REMARK  Name = 
REMARK  2 active torsions:
REMARK  status: ('A' for Active; 'I' for Inactive)
REMARK    1  A    between atoms: C_5  and  C_6
REMARK    2  A    between atoms: C_8  and  C_9
REMARK                            x       y       z     vdW  Elec       q    Type
REMARK                         _______ _______ _______ _____ _____    ______ ____
ROOT
ATOM      1  C   UNL     1       0.476  -1.552  -0.721  0.00  0.00    +0.024 C 
ATOM      2  C   UNL     1       1.824  -1.380  -0.149  0.00  0.00    +0.056 C 
ATOM      3  C   UNL     1       1.702  -2.537   0.836  0.00  0.00    -0.021 C 
ATOM      4  C   UNL     1       0.408  -2.923   1.001  0.00  0.00    -0.024 C 
ATOM      5  C   UNL     1      -0.406  -1.745   0.558  0.00  0.00    -0.012 C 
ATOM      6  C   UNL     1      -0.353  -1.025   1.989  0.00  0.00    +0.015 C 
ATOM      7  C   UNL     1      -1.755  -1.435  -0.084  0.00  0.00    +0.031 C 
ATOM      8  C   UNL     1      -1.911   0.113   0.037  0.00  0.00    +0.069 C 
ATOM      9  C   UNL     1      -2.965   0.414   1.131  0.00  0.00    +0.026 C 
ATOM     10  C   UNL     1      -2.281   0.988  -1.196  0.00  0.00    +0.169 C 
ATOM     11  O   UNL     1      -3.135   0.985  -2.051  0.00  0.00    -0.292 OA
ATOM     12  C   UNL     1      -1.313   2.000  -0.736  0.00  0.00    +0.067 C 
ATOM     13  C   UNL     1      -0.511   1.073  -0.128  0.00  0.00    +0.025 C 
ATOM     14  N   UNL     1       0.779   1.066   0.281  0.00  0.00    -0.320 N 
ATOM     15  C   UNL     1       1.892   0.122   0.231  0.00  0.00    +0.008 C 
ATOM     16  C   UNL     1       3.147   0.622   0.244  0.00  0.00    +0.029 C 
ATOM     17  H   UNL     1       1.198   2.000   0.299  0.00  0.00    +0.152 HD
ENDROOT
TORSDOF 0
