REMARK  Name = 
REMARK  0 active torsions:
REMARK  status: ('A' for Active; 'I' for Inactive)
REMARK                            x       y       z     vdW  Elec       q    Type
REMARK                         _______ _______ _______ _____ _____    ______ ____
ROOT
ATOM      1  C   UNL     1      -0.308  -0.954  -0.012  0.00  0.00    +0.043 C 
ATOM      2  C   UNL     1      -0.954   0.238   0.003  0.00  0.00    -0.016 C 
ATOM      3  C   UNL     1       0.328   1.059   0.037  0.00  0.00    +0.106 C 
ATOM      4  C   UNL     1       1.018  -0.310   0.005  0.00  0.00    +0.160 C 
ATOM      5  O   UNL     1       2.152  -0.739  -0.005  0.00  0.00    -0.292 OA
ENDROOT
TORSDOF 0
