REMARK  Name = 
REMARK  6 active torsions:
REMARK  status: ('A' for Active; 'I' for Inactive)
REMARK    1  A    between atoms: C_2  and  C_3
REMARK    2  A    between atoms: C_4  and  C_5
REMARK    3  A    between atoms: C_6  and  C_7
REMARK    4  A    between atoms: C_8  and  C_9
REMARK    5  A    between atoms: C_12  and  C_13
REMARK    6  A    between atoms: C_13  and  C_14
REMARK                            x       y       z     vdW  Elec       q    Type
REMARK                         _______ _______ _______ _____ _____    ______ ____
ROOT
ATOM      1  C   UNL     1       4.578   4.573  -4.079  0.00  0.00    +0.023 C 
ATOM      2  C   UNL     1       5.043   5.823  -3.268  0.00  0.00    +0.019 C 
ATOM      3  C   UNL     1       6.465   6.219  -3.670  0.00  0.00    +0.013 C 
ATOM      4  C   UNL     1       3.760   5.160  -5.250  0.00  0.00    +0.035 C 
ATOM      5  C   UNL     1       3.355   6.514  -4.759  0.00  0.00    -0.026 C 
ATOM      6  C   UNL     1       4.035   6.881  -3.664  0.00  0.00    -0.063 C 
ENDROOT
BRANCH   1   8
ATOM      7  C   UNL     1       4.194   2.318  -3.002  0.00  0.00    +0.056 C 
ATOM      8  C   UNL     1       3.795   3.589  -3.213  0.00  0.00    -0.014 C 
BRANCH   7  10
ATOM      9  C   UNL     1       2.857   0.574  -1.381  0.00  0.00    -0.070 C 
ATOM     10  C   UNL     1       3.506   1.405  -2.149  0.00  0.00    -0.070 C 
BRANCH   9  12
ATOM     11  C   UNL     1       0.909  -0.058   0.014  0.00  0.00    +0.018 C 
ATOM     12  C   UNL     1       2.101  -0.395  -0.487  0.00  0.00    +0.052 C 
ENDBRANCH   9  12
ENDBRANCH   7  10
ENDBRANCH   1   8
BRANCH   6  13
ATOM     13  C   UNL     1       3.910   8.197  -2.958  0.00  0.00    +0.101 C 
BRANCH  13  14
ATOM     14  C   UNL     1       3.473   8.035  -1.516  0.00  0.00    +0.227 C 
ATOM     15  O   UNL     1       4.118   8.459  -0.562  0.00  0.00    -0.301 OA
ENDBRANCH  13  14
ENDBRANCH   6  13
TORSDOF 5
