REMARK  Name = 
REMARK  4 active torsions:
REMARK  status: ('A' for Active; 'I' for Inactive)
REMARK    1  A    between atoms: C_3  and  C_4
REMARK    2  A    between atoms: C_3  and  C_5
REMARK    3  A    between atoms: C_6  and  C_7
REMARK    4  A    between atoms: C_16  and  C_17
REMARK                            x       y       z     vdW  Elec       q    Type
REMARK                         _______ _______ _______ _____ _____    ______ ____
ROOT
ATOM      1  C   UNL     1      -7.081   1.976   1.419  0.00  0.00    +0.066 C 
ATOM      2  N   UNL     1      -7.482   1.268   0.411  0.00  0.00    -0.270 NA
ATOM      3  C   UNL     1      -7.302   1.813  -0.978  0.00  0.00    +0.108 C 
ATOM      4  C   UNL     1      -5.697   1.711  -1.200  0.00  0.00    +0.136 C 
ATOM      5  N   UNL     1      -5.189   0.379  -1.648  0.00  0.00    -0.347 N 
ATOM      6  C   UNL     1      -6.149  -0.621  -1.860  0.00  0.00    +0.068 C 
ATOM      7  C   UNL     1      -7.239  -0.257  -2.560  0.00  0.00    +0.020 C 
ATOM      8  C   UNL     1      -8.042   0.836  -1.995  0.00  0.00    -0.024 C 
ATOM      9  C   UNL     1      -9.281   0.976  -2.504  0.00  0.00    +0.015 C 
ATOM     10  C   UNL     1      -7.866   3.286  -1.213  0.00  0.00    +0.042 C 
ATOM     11  C   UNL     1      -6.829   4.357  -1.574  0.00  0.00    +0.015 C 
ATOM     12  C   UNL     1      -8.857   3.849  -0.216  0.00  0.00    -0.020 C 
ATOM     13  C   UNL     1      -8.660   3.933   1.097  0.00  0.00    +0.005 C 
ATOM     14  C   UNL     1      -7.477   3.413   1.748  0.00  0.00    -0.007 C 
ATOM     15  C   UNL     1      -6.910   4.186   2.694  0.00  0.00    +0.019 C 
ATOM     16  H   UNL     1      -4.678   0.513  -2.522  0.00  0.00    +0.146 HD
ENDROOT
BRANCH   1  18
ATOM     17  C   UNL     1      -5.762   0.100   2.510  0.00  0.00    -0.018 C 
ATOM     18  C   UNL     1      -6.093   1.391   2.375  0.00  0.00    +0.024 C 
BRANCH  17  21
ATOM     19  C   UNL     1      -5.130  -1.329   4.522  0.00  0.00    +0.011 C 
ATOM     20  C   UNL     1      -4.874   0.099   4.902  0.00  0.00    +0.011 C 
ATOM     21  C   UNL     1      -4.709  -0.344   3.456  0.00  0.00    -0.014 C 
ATOM     22  C   UNL     1      -3.300  -0.398   2.919  0.00  0.00    +0.015 C 
ENDBRANCH  17  21
ENDBRANCH   1  18
TORSDOF 2
