REMARK  Name = 
REMARK  9 active torsions:
REMARK  status: ('A' for Active; 'I' for Inactive)
REMARK    1  A    between atoms: C_1  and  O_2
REMARK    2  A    between atoms: O_2  and  C_3
REMARK    3  A    between atoms: C_4  and  C_5
REMARK    4  A    between atoms: C_4  and  C_11
REMARK    5  A    between atoms: C_5  and  C_6
REMARK    6  A    between atoms: C_7  and  N_8
REMARK    7  A    between atoms: N_8  and  C_9
REMARK    8  A    between atoms: C_9  and  O_10
REMARK    9  A    between atoms: N_19  and  C_20
REMARK                            x       y       z     vdW  Elec       q    Type
REMARK                         _______ _______ _______ _____ _____    ______ ____
ROOT
ATOM      1  C   UNL     1       3.108  -1.128   0.283  0.00  0.00    +0.191 C 
ATOM      2  C   UNL     1       4.445  -1.067   0.183  0.00  0.00    -0.002 C 
ENDROOT
BRANCH   2   3
ATOM      3  C   UNL     1       5.144  -2.314  -0.132  0.00  0.00    -0.008 A 
ATOM      4  C   UNL     1       5.699  -3.213   0.784  0.00  0.00    +0.009 A 
ATOM      5  C   UNL     1       6.345  -4.405   0.333  0.00  0.00    +0.002 A 
ATOM      6  C   UNL     1       6.437  -4.727  -1.037  0.00  0.00    +0.024 A 
ATOM      7  C   UNL     1       5.864  -3.846  -1.889  0.00  0.00    +0.043 A 
ATOM      8  C   UNL     1       5.262  -2.720  -1.425  0.00  0.00    +0.025 A 
ATOM      9  C   UNL     1       5.038  -2.349  -2.795  0.00  0.00    +0.036 C 
ATOM     10  C   UNL     1       4.553  -1.275  -3.411  0.00  0.00    +0.034 C 
ATOM     11  N   UNL     1       5.547  -3.515  -3.141  0.00  0.00    -0.303 N 
ATOM     12  C   UNL     1       6.267  -3.851  -4.339  0.00  0.00    +0.135 C 
ENDBRANCH   2   3
BRANCH   1  14
ATOM     13  C   UNL     1       0.928  -0.332   0.367  0.00  0.00    +0.276 C 
ATOM     14  O   UNL     1       2.317  -0.014   0.368  0.00  0.00    -0.502 OA
ENDBRANCH   1  14
BRANCH   2  15
ATOM     15  C   UNL     1       5.248   0.210   0.098  0.00  0.00    +0.067 C 
BRANCH  15  16
ATOM     16  C   UNL     1       5.773   0.656   1.434  0.00  0.00    -0.007 C 
ATOM     17  C   UNL     1       5.897   1.933   1.810  0.00  0.00    +0.065 C 
BRANCH  17  18
ATOM     18  N   UNL     1       6.367   2.340   3.029  0.00  0.00    -0.328 N 
ATOM     19  H   UNL     1       6.871   1.631   3.554  0.00  0.00    +0.148 HD
BRANCH  18  20
ATOM     20  C   UNL     1       6.670   3.680   3.427  0.00  0.00    +0.261 C 
BRANCH  20  21
ATOM     21  O   UNL     1       6.419   3.721   4.810  0.00  0.00    -0.377 OA
ATOM     22  H   UNL     1       5.599   3.202   4.888  0.00  0.00    +0.211 HD
ENDBRANCH  20  21
ENDBRANCH  18  20
ENDBRANCH  17  18
ENDBRANCH  15  16
ENDBRANCH   2  15
TORSDOF 7
