REMARK  Name = 
REMARK  3 active torsions:
REMARK  status: ('A' for Active; 'I' for Inactive)
REMARK    1  A    between atoms: C_5  and  C_7
REMARK    2  A    between atoms: C_7  and  O_8
REMARK    3  A    between atoms: O_8  and  C_9
REMARK                            x       y       z     vdW  Elec       q    Type
REMARK                         _______ _______ _______ _____ _____    ______ ____
ROOT
ATOM      1  C   UNL     1       0.248  -1.394  -0.034  0.00  0.00    +0.259 C 
ATOM      2  C   UNL     1       1.293  -0.342  -0.015  0.00  0.00    +0.033 C 
ATOM      3  C   UNL     1       0.948   0.943   0.023  0.00  0.00    +0.113 C 
ATOM      4  N   UNL     1      -0.341   1.373   0.049  0.00  0.00    -0.222 NA
ATOM      5  C   UNL     1      -1.272   0.471   0.029  0.00  0.00    +0.229 C 
ATOM      6  O   UNL     1      -1.089  -0.872  -0.054  0.00  0.00    -0.473 OA
ENDROOT
BRANCH   5   7
ATOM      7  C   UNL     1      -2.749   0.830   0.014  0.00  0.00    +0.327 C 
BRANCH   7   8
ATOM      8  O   UNL     1      -3.044   2.073   0.649  0.00  0.00    -0.457 OA
BRANCH   8   9
ATOM      9  C   UNL     1      -2.996   2.024   2.002  0.00  0.00    +0.446 C 
ATOM     10  O   UNL     1      -2.804   1.034   2.689  0.00  0.00    -0.255 OA
ENDBRANCH   8   9
ENDBRANCH   7   8
ENDBRANCH   5   7
TORSDOF 3
