REMARK  Name = 
REMARK  5 active torsions:
REMARK  status: ('A' for Active; 'I' for Inactive)
REMARK    1  A    between atoms: C_1  and  C_2
REMARK    2  A    between atoms: C_5  and  C_8
REMARK    3  A    between atoms: C_9  and  N_10
REMARK    4  A    between atoms: N_10  and  C_11
REMARK    5  A    between atoms: C_12  and  C_13
REMARK                            x       y       z     vdW  Elec       q    Type
REMARK                         _______ _______ _______ _____ _____    ______ ____
ROOT
ATOM      1  C   UNL     1      -1.957   0.041  -1.863  0.00  0.00    -0.008 C 
ATOM      2  C   UNL     1      -3.104   0.029  -2.557  0.00  0.00    +0.067 C 
ENDROOT
BRANCH   1   7
ATOM      3  C   UNL     1       2.510  -0.003  -0.117  0.00  0.00    +0.007 C 
ATOM      4  C   UNL     1       1.050  -0.002   0.333  0.00  0.00    -0.014 C 
ATOM      5  C   UNL     1       0.343   1.275  -0.143  0.00  0.00    +0.004 C 
ATOM      6  C   UNL     1      -1.149   1.259   0.196  0.00  0.00    +0.008 C 
ATOM      7  C   UNL     1      -1.870   0.016  -0.350  0.00  0.00    +0.013 C 
ATOM      8  C   UNL     1      -1.161  -1.249   0.160  0.00  0.00    +0.008 C 
ATOM      9  C   UNL     1       0.334  -1.267  -0.164  0.00  0.00    +0.004 C 
ENDBRANCH   1   7
BRANCH   2  10
ATOM     10  N   UNL     1      -3.213   0.074  -3.922  0.00  0.00    -0.327 N 
ATOM     11  H   UNL     1      -2.335   0.144  -4.431  0.00  0.00    +0.151 HD
BRANCH  10  12
ATOM     12  C   UNL     1      -4.356   0.058  -4.682  0.00  0.00    +0.074 C 
ATOM     13  C   UNL     1      -4.411   0.115  -6.019  0.00  0.00    +0.058 C 
BRANCH  13  14
ATOM     14  C   UNL     1      -5.711   0.088  -6.716  0.00  0.00    +0.252 C 
ATOM     15  O   UNL     1      -5.778   0.142  -7.937  0.00  0.00    -0.296 OA
ENDBRANCH  13  14
ENDBRANCH  10  12
ENDBRANCH   2  10
TORSDOF 4
