REMARK  Name = 
REMARK  13 active torsions:
REMARK  status: ('A' for Active; 'I' for Inactive)
REMARK    1  A    between atoms: C_2  and  C_3
REMARK    2  A    between atoms: C_2  and  C_4
REMARK    3  A    between atoms: C_10  and  C_11
REMARK    4  A    between atoms: C_11  and  C_12
REMARK    5  A    between atoms: C_11  and  C_13
REMARK    6  A    between atoms: C_13  and  C_14
REMARK    7  A    between atoms: C_14  and  N_15
REMARK    8  A    between atoms: N_15  and  C_16
REMARK    9  A    between atoms: C_17  and  C_18
REMARK   10  A    between atoms: C_17  and  C_19
REMARK   11  A    between atoms: C_19  and  C_20
REMARK   12  A    between atoms: C_19  and  C_21
REMARK   13  A    between atoms: C_21  and  C_22
REMARK                            x       y       z     vdW  Elec       q    Type
REMARK                         _______ _______ _______ _____ _____    ______ ____
ROOT
ATOM      1  C   UNL     1       1.877   2.611  -0.097  0.00  0.00    +0.015 C 
ATOM      2  C   UNL     1       2.123   3.238   1.278  0.00  0.00    +0.012 C 
ENDROOT
BRANCH   1  12
ATOM      3  C   UNL     1      -0.326   1.357  -0.011  0.00  0.00    +0.040 C 
ATOM      4  C   UNL     1      -0.902   0.890  -1.374  0.00  0.00    -0.016 C 
ATOM      5  C   UNL     1      -0.029   1.322  -2.579  0.00  0.00    +0.013 C 
ATOM      6  C   UNL     1      -2.272   1.578  -1.550  0.00  0.00    +0.013 C 
ATOM      7  C   UNL     1      -1.062  -0.646  -1.458  0.00  0.00    +0.109 C 
ATOM      8  N   UNL     1      -0.938  -1.330  -0.183  0.00  0.00    -0.334 N 
ATOM      9  C   UNL     1       0.283  -1.701   0.331  0.00  0.00    +0.181 C 
ATOM     10  N   UNL     1       1.445  -1.179   0.496  0.00  0.00    -0.248 NA
ATOM     11  C   UNL     1       1.842   0.099   0.243  0.00  0.00    +0.111 C 
ATOM     12  C   UNL     1       1.173   1.253   0.067  0.00  0.00    -0.048 C 
ATOM     13  H   UNL     1      -1.633  -2.067  -0.094  0.00  0.00    +0.147 HD
ENDBRANCH   1  12
BRANCH   1  14
ATOM     14  C   UNL     1       3.142   2.570  -0.973  0.00  0.00    +0.026 C 
BRANCH  14  15
ATOM     15  C   UNL     1       3.719   3.961  -1.232  0.00  0.00    +0.101 C 
BRANCH  15  16
ATOM     16  N   UNL     1       4.856   3.849  -2.119  0.00  0.00    -0.350 N 
ATOM     17  H   UNL     1       4.692   3.394  -3.010  0.00  0.00    +0.146 HD
BRANCH  16  18
ATOM     18  C   UNL     1       6.144   4.163  -1.799  0.00  0.00    +0.066 C 
ATOM     19  C   UNL     1       7.245   4.060  -2.562  0.00  0.00    -0.056 C 
ATOM     20  C   UNL     1       7.230   3.578  -3.986  0.00  0.00    +0.040 C 
BRANCH  19  21
ATOM     21  C   UNL     1       8.621   4.456  -2.023  0.00  0.00    +0.020 C 
ATOM     22  C   UNL     1       8.659   5.939  -1.630  0.00  0.00    +0.012 C 
BRANCH  21  23
ATOM     23  C   UNL     1       9.079   3.591  -0.837  0.00  0.00    +0.078 C 
BRANCH  23  24
ATOM     24  C   UNL     1       9.243   2.148  -1.240  0.00  0.00    +0.223 C 
ATOM     25  O   UNL     1      10.322   1.562  -1.219  0.00  0.00    -0.301 OA
ENDBRANCH  23  24
ENDBRANCH  21  23
ENDBRANCH  19  21
ENDBRANCH  16  18
ENDBRANCH  15  16
ENDBRANCH  14  15
ENDBRANCH   1  14
TORSDOF 8
