REMARK  Name = 
REMARK  5 active torsions:
REMARK  status: ('A' for Active; 'I' for Inactive)
REMARK    1  A    between atoms: C_6  and  C_7
REMARK    2  A    between atoms: C_7  and  C_8
REMARK    3  A    between atoms: C_7  and  C_12
REMARK    4  A    between atoms: C_8  and  C_9
REMARK    5  A    between atoms: C_9  and  C_10
REMARK                            x       y       z     vdW  Elec       q    Type
REMARK                         _______ _______ _______ _____ _____    ______ ____
ROOT
ATOM      1  C   UNL     1       2.646  -1.785   0.064  0.00  0.00    +0.046 C 
ENDROOT
BRANCH   1   2
ATOM      2  C   UNL     1       3.973  -1.218   0.582  0.00  0.00    -0.033 A 
ATOM      3  C   UNL     1       4.914  -2.071   1.210  0.00  0.00    +0.012 A 
ATOM      4  C   UNL     1       5.674  -1.433   2.170  0.00  0.00    -0.025 A 
ATOM      5  C   UNL     1       6.335  -0.398   1.562  0.00  0.00    +0.008 A 
ATOM      6  C   UNL     1       5.465   0.465   0.885  0.00  0.00    +0.009 A 
ATOM      7  C   UNL     1       4.146   0.090   1.023  0.00  0.00    -0.021 A 
ATOM      8  C   UNL     1       3.898   0.038   2.369  0.00  0.00    +0.009 A 
ATOM      9  C   UNL     1       4.773  -0.841   3.028  0.00  0.00    +0.008 A 
ENDBRANCH   1   2
BRANCH   1  15
ATOM     10  C   UNL     1       0.172  -1.119   0.630  0.00  0.00    +0.039 C 
ATOM     11  C   UNL     1      -0.596   0.197   0.701  0.00  0.00    +0.083 C 
ATOM     12  C   UNL     1       0.285   1.126  -0.076  0.00  0.00    +0.156 C 
ATOM     13  O   UNL     1       0.031   2.292  -0.333  0.00  0.00    -0.293 OA
ATOM     14  C   UNL     1       1.552   0.486  -0.444  0.00  0.00    +0.046 C 
ATOM     15  C   UNL     1       1.507  -0.768   0.029  0.00  0.00    -0.058 C 
ENDBRANCH   1  15
BRANCH   1  16
ATOM     16  C   UNL     1       2.704  -2.531  -1.292  0.00  0.00    +0.018 C 
BRANCH  16  17
ATOM     17  C   UNL     1       3.764  -3.622  -1.393  0.00  0.00    +0.047 C 
BRANCH  17  18
ATOM     18  C   UNL     1       3.685  -4.321  -2.726  0.00  0.00    +0.074 C 
ATOM     19  N   UNL     1       4.636  -4.279  -3.597  0.00  0.00    -0.312 NA
ATOM     20  H   UNL     1       5.427  -3.718  -3.260  0.00  0.00    +0.186 HD
ENDBRANCH  17  18
ENDBRANCH  16  17
ENDBRANCH   1  16
TORSDOF 5
