REMARK  Name = 
REMARK  11 active torsions:
REMARK  status: ('A' for Active; 'I' for Inactive)
REMARK    1  A    between atoms: C_1  and  C_2
REMARK    2  A    between atoms: C_3  and  N_4
REMARK    3  A    between atoms: N_4  and  C_5
REMARK    4  A    between atoms: C_6  and  C_7
REMARK    5  A    between atoms: C_12  and  N_15
REMARK    6  A    between atoms: N_15  and  C_16
REMARK    7  A    between atoms: C_16  and  C_17
REMARK    8  A    between atoms: C_16  and  C_18
REMARK    9  A    between atoms: C_18  and  C_19
REMARK   10  A    between atoms: C_20  and  C_21
REMARK   11  A    between atoms: C_22  and  C_23
REMARK                            x       y       z     vdW  Elec       q    Type
REMARK                         _______ _______ _______ _____ _____    ______ ____
ROOT
ATOM      1  C   UNL     1       4.372   1.278   1.293  0.00  0.00    +0.058 C 
ATOM      2  C   UNL     1       4.863   2.386   1.770  0.00  0.00    -0.101 C 
ATOM      3  C   UNL     1       5.295   3.559   2.145  0.00  0.00    +0.051 C 
ATOM      4  N   UNL     1       6.244   3.674   3.136  0.00  0.00    -0.316 N 
ATOM      5  C   UNL     1       6.572   4.850   3.751  0.00  0.00    +0.090 C 
ATOM      6  C   UNL     1       6.066   6.058   3.419  0.00  0.00    +0.018 C 
ATOM      7  C   UNL     1       5.093   6.128   2.255  0.00  0.00    +0.058 C 
ATOM      8  C   UNL     1       4.829   4.828   1.474  0.00  0.00    +0.065 C 
ATOM      9  H   UNL     1       6.506   2.818   3.624  0.00  0.00    +0.152 HD
ENDROOT
BRANCH   1  13
ATOM     10  C   UNL     1       1.056  -0.535   0.210  0.00  0.00    +0.019 C 
ATOM     11  C   UNL     1       2.218   0.388   0.120  0.00  0.00    +0.062 C 
ATOM     12  C   UNL     1       1.947   1.842   0.964  0.00  0.00    +0.015 C 
ATOM     13  C   UNL     1       2.983   1.086   1.049  0.00  0.00    -0.014 C 
BRANCH  12  14
ATOM     14  N   UNL     1       0.677   2.237   0.725  0.00  0.00    -0.349 N 
ATOM     15  C   UNL     1       0.061   3.381   1.366  0.00  0.00    +0.125 C 
ATOM     16  H   UNL     1       0.005   1.509   0.517  0.00  0.00    +0.145 HD
ENDBRANCH  12  14
ENDBRANCH   1  13
BRANCH   6  17
ATOM     17  N   UNL     1       6.283   7.241   4.115  0.00  0.00    -0.343 N 
ATOM     18  H   UNL     1       5.570   7.929   3.883  0.00  0.00    +0.146 HD
BRANCH  17  19
ATOM     19  C   UNL     1       7.591   7.882   4.331  0.00  0.00    +0.079 C 
ATOM     20  C   UNL     1       8.303   8.177   3.008  0.00  0.00    +0.028 C 
BRANCH  19  21
ATOM     21  C   UNL     1       7.407   9.181   5.161  0.00  0.00    +0.111 C 
BRANCH  21  22
ATOM     22  C   UNL     1       6.555  10.199   4.506  0.00  0.00    -0.096 C 
ATOM     23  C   UNL     1       5.842  11.021   3.976  0.00  0.00    -0.074 C 
BRANCH  23  24
ATOM     24  C   UNL     1       4.983  11.944   3.351  0.00  0.00    +0.061 C 
ATOM     25  C   UNL     1       3.780  12.230   3.873  0.00  0.00    +0.028 C 
BRANCH  25  26
ATOM     26  C   UNL     1       2.895  13.184   3.183  0.00  0.00    +0.102 C 
ATOM     27  N   UNL     1       1.731  13.530   3.610  0.00  0.00    -0.307 NA
ATOM     28  H   UNL     1       1.501  13.058   4.491  0.00  0.00    +0.186 HD
ENDBRANCH  25  26
ENDBRANCH  23  24
ENDBRANCH  21  22
ENDBRANCH  19  21
ENDBRANCH  17  19
ENDBRANCH   6  17
TORSDOF 8
