REMARK  Name = 
REMARK  9 active torsions:
REMARK  status: ('A' for Active; 'I' for Inactive)
REMARK    1  A    between atoms: C_1  and  C_2
REMARK    2  A    between atoms: C_2  and  C_3
REMARK    3  A    between atoms: C_3  and  C_4
REMARK    4  A    between atoms: C_5  and  O_6
REMARK    5  A    between atoms: O_6  and  C_7
REMARK    6  A    between atoms: C_8  and  C_9
REMARK    7  A    between atoms: C_9  and  C_11
REMARK    8  A    between atoms: C_12  and  C_13
REMARK    9  A    between atoms: C_14  and  C_15
REMARK                            x       y       z     vdW  Elec       q    Type
REMARK                         _______ _______ _______ _____ _____    ______ ____
ROOT
ATOM      1  C   UNL     1       2.404  -4.280   3.154  0.00  0.00    +0.197 C 
ATOM      2  C   UNL     1       1.077  -4.425   3.118  0.00  0.00    +0.065 C 
ENDROOT
BRANCH   2   3
ATOM      3  C   UNL     1       0.410  -5.617   3.706  0.00  0.00    +0.058 C 
ATOM      4  N   UNL     1       0.913  -6.806   3.738  0.00  0.00    -0.300 NA
ATOM      5  H   UNL     1       1.833  -6.839   3.292  0.00  0.00    +0.187 HD
BRANCH   3   6
ATOM      6  C   UNL     1      -0.943  -5.308   4.252  0.00  0.00    +0.027 C 
ATOM      7  C   UNL     1      -1.659  -6.241   4.897  0.00  0.00    +0.002 C 
BRANCH   7   8
ATOM      8  C   UNL     1      -2.957  -5.975   5.481  0.00  0.00    +0.000 C 
ATOM      9  C   UNL     1      -3.660  -6.908   6.142  0.00  0.00    -0.001 C 
BRANCH   9  10
ATOM     10  C   UNL     1      -4.956  -6.653   6.740  0.00  0.00    -0.008 C 
ATOM     11  C   UNL     1      -5.646  -7.590   7.391  0.00  0.00    +0.008 C 
ENDBRANCH   9  10
ENDBRANCH   7   8
ENDBRANCH   3   6
ENDBRANCH   2   3
BRANCH   1  12
ATOM     12  O   UNL     1       3.019  -3.122   2.747  0.00  0.00    -0.463 OA
BRANCH  12  14
ATOM     13  C   UNL     1       4.625  -2.802   1.058  0.00  0.00    +0.006 C 
ATOM     14  C   UNL     1       4.317  -3.255   2.304  0.00  0.00    +0.138 C 
ATOM     15  C   UNL     1       5.230  -2.221   2.162  0.00  0.00    +0.017 C 
ATOM     16  C   UNL     1       6.072  -1.391   2.743  0.00  0.00    +0.021 C 
BRANCH  13  17
ATOM     17  C   UNL     1       3.540  -2.536   0.073  0.00  0.00    +0.039 C 
BRANCH  17  19
ATOM     18  C   UNL     1       5.202  -2.674  -1.857  0.00  0.00    +0.004 C 
ATOM     19  C   UNL     1       3.946  -2.021  -1.308  0.00  0.00    +0.001 C 
ENDBRANCH  17  19
ENDBRANCH  13  17
ENDBRANCH  12  14
ENDBRANCH   1  12
TORSDOF 8
