REMARK  Name = 
REMARK  5 active torsions:
REMARK  status: ('A' for Active; 'I' for Inactive)
REMARK    1  A    between atoms: C_2  and  C_8
REMARK    2  A    between atoms: C_8  and  N_9
REMARK    3  A    between atoms: C_11  and  C_12
REMARK    4  A    between atoms: C_13  and  C_14
REMARK    5  A    between atoms: C_15  and  C_16
REMARK                            x       y       z     vdW  Elec       q    Type
REMARK                         _______ _______ _______ _____ _____    ______ ____
ROOT
ATOM      1  N   UNL     1       1.433  -3.611   0.217  0.00  0.00    -0.237 NA
ATOM      2  C   UNL     1       1.582  -4.746   0.470  0.00  0.00    -0.018 C 
ATOM      3  C   UNL     1       1.825  -5.996   0.744  0.00  0.00    +0.072 C 
ENDROOT
BRANCH   3   4
ATOM      4  C   UNL     1       3.179  -6.499   0.784  0.00  0.00    +0.010 C 
ATOM      5  C   UNL     1       3.496  -7.774   1.061  0.00  0.00    +0.001 C 
BRANCH   5   6
ATOM      6  C   UNL     1       4.867  -8.239   1.078  0.00  0.00    +0.001 C 
ATOM      7  C   UNL     1       5.222  -9.504   1.356  0.00  0.00    +0.008 C 
BRANCH   7   8
ATOM      8  C   UNL     1       6.616  -9.981   1.341  0.00  0.00    -0.025 A 
ATOM      9  C   UNL     1       7.696  -9.151   1.677  0.00  0.00    +0.008 A 
ATOM     10  C   UNL     1       9.009  -9.625   1.618  0.00  0.00    +0.001 A 
ATOM     11  C   UNL     1       9.259 -10.943   1.247  0.00  0.00    +0.000 A 
ATOM     12  C   UNL     1       8.195 -11.792   0.953  0.00  0.00    +0.001 A 
ATOM     13  C   UNL     1       6.881 -11.316   1.006  0.00  0.00    +0.008 A 
ENDBRANCH   7   8
ENDBRANCH   5   6
ENDBRANCH   3   4
BRANCH   1  14
ATOM     14  C   UNL     1       0.038  -3.142   0.149  0.00  0.00    +0.187 C 
BRANCH  14  16
ATOM     15  C   UNL     1      -1.085  -0.894   0.278  0.00  0.00    -0.035 A 
ATOM     16  C   UNL     1      -0.054  -1.682  -0.169  0.00  0.00    -0.022 A 
ATOM     17  C   UNL     1       0.826  -0.995  -0.980  0.00  0.00    +0.006 A 
ATOM     18  C   UNL     1       0.596   0.361  -1.208  0.00  0.00    +0.001 A 
ATOM     19  C   UNL     1      -0.529   1.011  -0.623  0.00  0.00    +0.004 A 
ATOM     20  C   UNL     1      -1.485   0.435   0.170  0.00  0.00    -0.039 A 
ATOM     21  C   UNL     1      -2.251  -0.642   0.956  0.00  0.00    +0.071 C 
ENDBRANCH  14  16
ENDBRANCH   1  14
TORSDOF 5
