REMARK  Name = 
REMARK  12 active torsions:
REMARK  status: ('A' for Active; 'I' for Inactive)
REMARK    1  A    between atoms: C_5  and  C_6
REMARK    2  A    between atoms: C_6  and  C_7
REMARK    3  A    between atoms: C_9  and  N_10
REMARK    4  A    between atoms: N_10  and  C_11
REMARK    5  A    between atoms: C_11  and  C_12
REMARK    6  A    between atoms: C_13  and  C_14
REMARK    7  A    between atoms: C_15  and  C_16
REMARK    8  A    between atoms: C_16  and  C_17
REMARK    9  A    between atoms: C_16  and  C_23
REMARK   10  A    between atoms: C_24  and  C_25
REMARK   11  A    between atoms: C_25  and  N_26
REMARK   12  A    between atoms: N_26  and  C_27
REMARK                            x       y       z     vdW  Elec       q    Type
REMARK                         _______ _______ _______ _____ _____    ______ ____
ROOT
ATOM      1  C   UNL     1       3.771   5.913   2.590  0.00  0.00    -0.004 C 
ATOM      2  C   UNL     1       3.744   7.240   2.796  0.00  0.00    -0.019 C 
ENDROOT
BRANCH   1   4
ATOM      3  C   UNL     1       2.868   3.910   1.517  0.00  0.00    -0.012 C 
ATOM      4  C   UNL     1       2.846   5.238   1.710  0.00  0.00    -0.003 C 
BRANCH   3   5
ATOM      5  C   UNL     1       1.896   3.174   0.648  0.00  0.00    +0.109 C 
BRANCH   5   6
ATOM      6  N   UNL     1       2.613   2.394  -0.359  0.00  0.00    -0.306 NA
ATOM      7  H   UNL     1       3.180   3.048  -0.898  0.00  0.00    +0.123 HD
BRANCH   6  13
ATOM      8  C   UNL     1       0.763   0.747  -0.506  0.00  0.00    +0.023 C 
ATOM      9  C   UNL     1       0.003  -0.199  -1.424  0.00  0.00    +0.006 C 
ATOM     10  C   UNL     1       0.966  -1.085  -2.203  0.00  0.00    +0.027 C 
ATOM     11  C   UNL     1       2.133  -0.324  -2.754  0.00  0.00    -0.026 C 
ATOM     12  C   UNL     1       2.487   0.922  -2.370  0.00  0.00    -0.053 C 
ATOM     13  C   UNL     1       1.717   1.683  -1.289  0.00  0.00    +0.080 C 
BRANCH  12  14
ATOM     14  C   UNL     1       3.594   1.638  -3.121  0.00  0.00    +0.058 C 
BRANCH  14  15
ATOM     15  C   UNL     1       4.958   1.407  -2.531  0.00  0.00    -0.030 C 
ATOM     16  C   UNL     1       6.001   0.902  -3.205  0.00  0.00    +0.004 C 
ENDBRANCH  14  15
ENDBRANCH  12  14
ENDBRANCH   6  13
ENDBRANCH   5   6
ENDBRANCH   3   5
ENDBRANCH   1   4
BRANCH   2  17
ATOM     17  C   UNL     1       4.749   7.975   3.655  0.00  0.00    +0.043 C 
BRANCH  17  18
ATOM     18  C   UNL     1       5.577   9.021   2.855  0.00  0.00    +0.045 C 
ATOM     19  C   UNL     1       4.753  10.139   2.195  0.00  0.00    +0.038 C 
ATOM     20  C   UNL     1       4.865  10.184   0.711  0.00  0.00    -0.007 C 
ATOM     21  C   UNL     1       5.700   9.387   0.037  0.00  0.00    +0.106 C 
ATOM     22  N   UNL     1       6.542   8.474   0.598  0.00  0.00    -0.268 NA
ATOM     23  C   UNL     1       6.489   8.303   1.882  0.00  0.00    +0.088 C 
ENDBRANCH  17  18
BRANCH  17  24
ATOM     24  C   UNL     1       4.077   8.653   4.832  0.00  0.00    -0.022 C 
ATOM     25  C   UNL     1       4.363   8.392   6.118  0.00  0.00    -0.015 C 
BRANCH  25  26
ATOM     26  C   UNL     1       3.833   9.188   7.273  0.00  0.00    +0.108 C 
BRANCH  26  27
ATOM     27  N   UNL     1       4.975   9.693   8.032  0.00  0.00    -0.316 NA
ATOM     28  C   UNL     1       4.544  10.525   9.146  0.00  0.00    +0.101 C 
ATOM     29  H   UNL     1       5.560  10.252   7.411  0.00  0.00    +0.122 HD
ENDBRANCH  26  27
ENDBRANCH  25  26
ENDBRANCH  17  24
ENDBRANCH   2  17
TORSDOF 11
