REMARK  Name = 
REMARK  16 active torsions:
REMARK  status: ('A' for Active; 'I' for Inactive)
REMARK    1  A    between atoms: C_1  and  N_2
REMARK    2  A    between atoms: N_2  and  C_3
REMARK    3  A    between atoms: N_2  and  C_8
REMARK    4  A    between atoms: C_4  and  C_5
REMARK    5  A    between atoms: C_6  and  C_7
REMARK    6  A    between atoms: C_9  and  C_10
REMARK    7  A    between atoms: C_10  and  C_12
REMARK    8  A    between atoms: C_13  and  C_14
REMARK    9  A    between atoms: C_15  and  C_16
REMARK   10  A    between atoms: C_16  and  C_19
REMARK   11  A    between atoms: C_17  and  C_18
REMARK   12  A    between atoms: C_19  and  C_20
REMARK   13  A    between atoms: C_19  and  N_22
REMARK   14  A    between atoms: N_22  and  C_23
REMARK   15  A    between atoms: C_23  and  C_24
REMARK   16  A    between atoms: C_24  and  C_25
REMARK                            x       y       z     vdW  Elec       q    Type
REMARK                         _______ _______ _______ _____ _____    ______ ____
ROOT
ATOM      1  C   UNL     1       6.644   1.975  -2.032  0.00  0.00    +0.007 C 
ATOM      2  C   UNL     1       7.459   2.487  -2.974  0.00  0.00    +0.001 C 
ENDROOT
BRANCH   1   3
ATOM      3  C   UNL     1       5.173   1.971  -2.060  0.00  0.00    -0.031 C 
ATOM      4  C   UNL     1       4.563   1.906  -0.858  0.00  0.00    +0.017 C 
BRANCH   3   6
ATOM      5  C   UNL     1       3.134   2.294  -3.474  0.00  0.00    +0.075 C 
ATOM      6  C   UNL     1       4.385   1.836  -3.290  0.00  0.00    +0.022 C 
BRANCH   5   8
ATOM      7  C   UNL     1       0.928   2.873  -4.364  0.00  0.00    +0.134 C 
ATOM      8  N   UNL     1       2.254   2.250  -4.569  0.00  0.00    -0.316 N 
BRANCH   8   9
ATOM      9  C   UNL     1       2.589   1.672  -5.797  0.00  0.00    +0.074 C 
ATOM     10  C   UNL     1       1.881   1.572  -6.934  0.00  0.00    +0.015 C 
BRANCH  10  11
ATOM     11  C   UNL     1       2.382   0.950  -8.141  0.00  0.00    -0.003 C 
ATOM     12  C   UNL     1       1.651   0.870  -9.264  0.00  0.00    -0.030 C 
ATOM     13  C   UNL     1       2.129   0.247 -10.535  0.00  0.00    +0.035 C 
ENDBRANCH  10  11
ENDBRANCH   8   9
ENDBRANCH   5   8
ENDBRANCH   3   6
ENDBRANCH   1   3
BRANCH   2  14
ATOM     14  C   UNL     1       8.904   2.514  -2.811  0.00  0.00    +0.000 C 
ATOM     15  C   UNL     1       9.755   3.022  -3.719  0.00  0.00    +0.005 C 
BRANCH  15  16
ATOM     16  C   UNL     1      11.211   3.075  -3.555  0.00  0.00    -0.031 C 
ATOM     17  C   UNL     1      11.824   3.815  -2.604  0.00  0.00    -0.025 C 
ATOM     18  C   UNL     1      11.241   4.672  -1.530  0.00  0.00    +0.035 C 
BRANCH  16  19
ATOM     19  C   UNL     1      12.010   2.198  -4.549  0.00  0.00    +0.106 C 
BRANCH  19  20
ATOM     20  C   UNL     1      12.294   2.983  -5.825  0.00  0.00    -0.011 C 
ATOM     21  C   UNL     1      13.487   3.255  -6.387  0.00  0.00    +0.006 C 
ENDBRANCH  19  20
BRANCH  19  22
ATOM     22  N   UNL     1      13.264   1.639  -4.012  0.00  0.00    -0.306 NA
ATOM     23  H   UNL     1      13.888   2.407  -3.780  0.00  0.00    +0.123 HD
BRANCH  22  24
ATOM     24  C   UNL     1      13.091   0.758  -2.861  0.00  0.00    +0.081 C 
BRANCH  24  25
ATOM     25  C   UNL     1      14.475   0.342  -2.354  0.00  0.00    +0.012 C 
ATOM     26  C   UNL     1      14.376  -0.535  -1.115  0.00  0.00    +0.005 C 
ENDBRANCH  24  25
ENDBRANCH  22  24
ENDBRANCH  19  22
ENDBRANCH  16  19
ENDBRANCH  15  16
ENDBRANCH   2  14
TORSDOF 12
