REMARK  Name = 
REMARK  5 active torsions:
REMARK  status: ('A' for Active; 'I' for Inactive)
REMARK    1  A    between atoms: C_1  and  C_2
REMARK    2  A    between atoms: C_2  and  C_3
REMARK    3  A    between atoms: C_4  and  C_5
REMARK    4  A    between atoms: C_4  and  C_7
REMARK    5  A    between atoms: N_10  and  C_11
REMARK                            x       y       z     vdW  Elec       q    Type
REMARK                         _______ _______ _______ _____ _____    ______ ____
ROOT
ATOM      1  C   UNL     1       7.333   2.728   0.744  0.00  0.00    +0.068 C 
ATOM      2  C   UNL     1       8.787   2.528   1.293  0.00  0.00    +0.002 C 
ATOM      3  C   UNL     1       9.885   3.220   0.840  0.00  0.00    +0.089 C 
ATOM      4  N   UNL     1      11.285   3.025   0.807  0.00  0.00    -0.251 N 
ATOM      5  C   UNL     1       7.422   3.208  -0.704  0.00  0.00    -0.015 C 
ATOM      6  C   UNL     1       7.335   4.525  -0.998  0.00  0.00    -0.003 C 
ATOM      7  C   UNL     1       8.337   5.083  -1.893  0.00  0.00    -0.000 C 
ATOM      8  C   UNL     1       9.004   6.179  -1.526  0.00  0.00    -0.000 C 
ATOM      9  C   UNL     1      10.454   6.122  -1.610  0.00  0.00    -0.004 C 
ATOM     10  C   UNL     1      11.244   6.705  -0.697  0.00  0.00    -0.022 C 
ATOM     11  C   UNL     1      12.594   6.263  -0.291  0.00  0.00    +0.032 C 
ATOM     12  C   UNL     1      13.491   5.504  -1.213  0.00  0.00    +0.030 C 
ATOM     13  C   UNL     1      12.860   4.777  -0.019  0.00  0.00    +0.081 C 
ATOM     14  N   UNL     1      11.907   3.681  -0.350  0.00  0.00    -0.233 NA
ATOM     15  H   UNL     1      12.368   2.977  -0.930  0.00  0.00    +0.145 HD
ENDROOT
BRANCH   1  17
ATOM     16  C   UNL     1       6.428   0.262   1.181  0.00  0.00    -0.020 C 
ATOM     17  C   UNL     1       6.301   1.569   0.844  0.00  0.00    -0.002 C 
BRANCH  16  19
ATOM     18  C   UNL     1       4.806  -1.664   0.464  0.00  0.00    +0.008 C 
ATOM     19  C   UNL     1       5.280  -0.694   1.541  0.00  0.00    +0.024 C 
ENDBRANCH  16  19
BRANCH  17  20
ATOM     20  C   UNL     1       4.898   2.008   0.540  0.00  0.00    +0.255 C 
ATOM     21  O   UNL     1       4.514   3.166   0.652  0.00  0.00    -0.296 OA
ENDBRANCH  17  20
ENDBRANCH   1  17
BRANCH   4  22
ATOM     22  C   UNL     1      11.869   1.808   1.161  0.00  0.00    +0.085 C 
ATOM     23  C   UNL     1      13.135   1.377   1.055  0.00  0.00    +0.026 C 
ENDBRANCH   4  22
TORSDOF 4
