REMARK  Name = 
REMARK  7 active torsions:
REMARK  status: ('A' for Active; 'I' for Inactive)
REMARK    1  A    between atoms: C_12  and  C_15
REMARK    2  A    between atoms: C_16  and  N_17
REMARK    3  A    between atoms: N_17  and  C_18
REMARK    4  A    between atoms: C_18  and  C_19
REMARK    5  A    between atoms: C_18  and  C_20
REMARK    6  A    between atoms: C_20  and  C_21
REMARK    7  A    between atoms: C_21  and  C_22
REMARK                            x       y       z     vdW  Elec       q    Type
REMARK                         _______ _______ _______ _____ _____    ______ ____
ROOT
ATOM      1  C   UNL     1      -2.568  -2.055   3.397  0.00  0.00    -0.074 C 
ATOM      2  C   UNL     1      -1.499  -2.595   2.879  0.00  0.00    +0.033 C 
ATOM      3  C   UNL     1      -0.425  -2.025   1.981  0.00  0.00    +0.036 C 
ATOM      4  C   UNL     1      -0.082  -0.524   1.848  0.00  0.00    +0.009 C 
ATOM      5  C   UNL     1      -0.645   0.378   2.934  0.00  0.00    +0.032 C 
ATOM      6  C   UNL     1      -0.341   1.832   2.754  0.00  0.00    -0.062 C 
ATOM      7  C   UNL     1      -0.365   3.120   2.979  0.00  0.00    -0.015 C 
ATOM      8  C   UNL     1      -1.078   2.577   4.012  0.00  0.00    +0.060 C 
ATOM      9  C   UNL     1      -2.547   2.504   3.978  0.00  0.00    -0.015 C 
ATOM     10  C   UNL     1      -3.242   1.462   4.467  0.00  0.00    -0.003 C 
ATOM     11  C   UNL     1      -4.659   1.238   4.279  0.00  0.00    +0.008 C 
ATOM     12  C   UNL     1      -5.303   0.044   4.341  0.00  0.00    -0.016 C 
ATOM     13  C   UNL     1      -4.606  -1.222   4.600  0.00  0.00    +0.068 C 
ATOM     14  C   UNL     1      -3.555  -1.641   3.949  0.00  0.00    -0.069 C 
ENDROOT
BRANCH  12  15
ATOM     15  C   UNL     1      -6.774   0.098   4.272  0.00  0.00    +0.023 C 
ATOM     16  C   UNL     1      -7.558  -0.876   3.786  0.00  0.00    +0.068 C 
BRANCH  16  17
ATOM     17  N   UNL     1      -8.930  -0.855   3.698  0.00  0.00    -0.347 N 
ATOM     18  H   UNL     1      -9.401  -0.085   4.166  0.00  0.00    +0.146 HD
BRANCH  17  19
ATOM     19  C   UNL     1      -9.769  -1.941   3.203  0.00  0.00    +0.067 C 
ATOM     20  C   UNL     1     -10.173  -2.854   4.359  0.00  0.00    +0.028 C 
BRANCH  19  21
ATOM     21  C   UNL     1     -11.018  -1.361   2.516  0.00  0.00    +0.024 C 
BRANCH  21  22
ATOM     22  C   UNL     1     -10.721  -0.433   1.332  0.00  0.00    +0.035 C 
BRANCH  22  23
ATOM     23  C   UNL     1      -9.951  -1.109   0.213  0.00  0.00    +0.213 C 
ATOM     24  F   UNL     1     -10.666  -2.177  -0.233  0.00  0.00    -0.249 F 
ENDBRANCH  22  23
ENDBRANCH  21  22
ENDBRANCH  19  21
ENDBRANCH  17  19
ENDBRANCH  16  17
ENDBRANCH  12  15
TORSDOF 6
