REMARK  Name = 
REMARK  2 active torsions:
REMARK  status: ('A' for Active; 'I' for Inactive)
REMARK    1  A    between atoms: C_6  and  C_7
REMARK    2  A    between atoms: N_9  and  C_10
REMARK                            x       y       z     vdW  Elec       q    Type
REMARK                         _______ _______ _______ _____ _____    ______ ____
ROOT
ATOM      1  C   UNL     1       0.542  -0.622   0.382  0.00  0.00    +0.026 C 
ATOM      2  C   UNL     1      -0.511  -1.362  -0.395  0.00  0.00    -0.026 C 
ATOM      3  C   UNL     1      -1.452  -0.411  -0.264  0.00  0.00    -0.027 C 
ATOM      4  C   UNL     1      -0.561   0.485   0.540  0.00  0.00    +0.019 C 
ATOM      5  C   UNL     1       0.275   1.450  -0.309  0.00  0.00    +0.017 C 
ATOM      6  C   UNL     1       1.484   0.531  -0.045  0.00  0.00    +0.029 C 
ENDROOT
BRANCH   6   7
ATOM      7  C   UNL     1       2.286   0.926   1.163  0.00  0.00    +0.048 C 
ATOM      8  C   UNL     1       3.269   1.770   1.224  0.00  0.00    -0.022 C 
ATOM      9  N   UNL     1       4.156   2.515   1.325  0.00  0.00    -0.245 NA
ATOM     10  C   UNL     1       4.333   3.057   2.666  0.00  0.00    +0.182 C 
ENDBRANCH   6   7
TORSDOF 1
