REMARK  Name = 
REMARK  10 active torsions:
REMARK  status: ('A' for Active; 'I' for Inactive)
REMARK    1  A    between atoms: C_1  and  C_2
REMARK    2  A    between atoms: C_2  and  C_3
REMARK    3  A    between atoms: C_3  and  C_4
REMARK    4  A    between atoms: C_5  and  C_6
REMARK    5  A    between atoms: C_10  and  C_13
REMARK    6  A    between atoms: C_18  and  C_19
REMARK    7  A    between atoms: C_19  and  C_20
REMARK    8  A    between atoms: C_20  and  C_21
REMARK    9  A    between atoms: C_20  and  C_22
REMARK   10  A    between atoms: C_24  and  N_25
REMARK                            x       y       z     vdW  Elec       q    Type
REMARK                         _______ _______ _______ _____ _____    ______ ____
ROOT
ATOM      1  C   UNL     1      11.181  -1.780  -3.446  0.00  0.00    +0.023 C 
ATOM      2  C   UNL     1      12.099  -3.016  -3.339  0.00  0.00    +0.008 C 
ATOM      3  C   UNL     1      13.464  -2.754  -3.976  0.00  0.00    +0.001 C 
ATOM      4  C   UNL     1      14.126  -1.503  -3.411  0.00  0.00    +0.000 C 
ATOM      5  C   UNL     1      13.206  -0.288  -3.531  0.00  0.00    +0.004 C 
ATOM      6  C   UNL     1      11.842  -0.497  -2.822  0.00  0.00    -0.003 C 
ENDROOT
BRANCH   1  11
ATOM      7  C   UNL     1       6.560  -2.053  -2.870  0.00  0.00    +0.031 C 
ATOM      8  C   UNL     1       6.959  -2.201  -1.591  0.00  0.00    +0.023 C 
ATOM      9  N   UNL     1       7.384  -2.150  -3.980  0.00  0.00    -0.320 N 
ATOM     10  C   UNL     1       8.754  -1.967  -4.028  0.00  0.00    +0.076 C 
ATOM     11  C   UNL     1       9.714  -2.074  -3.084  0.00  0.00    -0.030 C 
ATOM     12  C   UNL     1       9.432  -2.595  -1.757  0.00  0.00    +0.005 C 
ATOM     13  C   UNL     1       8.251  -2.650  -1.126  0.00  0.00    +0.002 C 
ATOM     14  H   UNL     1       6.912  -1.901  -4.844  0.00  0.00    +0.152 HD
BRANCH   7  16
ATOM     15  C   UNL     1       4.373  -1.998  -4.121  0.00  0.00    -0.025 C 
ATOM     16  C   UNL     1       5.161  -1.667  -3.084  0.00  0.00    +0.019 C 
BRANCH  15  17
ATOM     17  C   UNL     1       2.962  -1.486  -4.273  0.00  0.00    +0.027 C 
BRANCH  17  19
ATOM     18  C   UNL     1       0.500  -1.999  -4.410  0.00  0.00    +0.004 C 
ATOM     19  C   UNL     1       1.900  -2.589  -4.269  0.00  0.00    +0.001 C 
ENDBRANCH  17  19
ENDBRANCH  15  17
ENDBRANCH   7  16
ENDBRANCH   1  11
BRANCH   6  20
ATOM     20  C   UNL     1      12.003  -0.455  -1.266  0.00  0.00    +0.011 C 
BRANCH  20  21
ATOM     21  C   UNL     1      12.543   0.901  -0.707  0.00  0.00    +0.014 C 
ATOM     22  C   UNL     1      11.568   2.044  -0.996  0.00  0.00    +0.012 C 
BRANCH  21  23
ATOM     23  C   UNL     1      12.820   0.897   0.767  0.00  0.00    -0.048 C 
ATOM     24  C   UNL     1      13.986   1.288   1.296  0.00  0.00    -0.003 C 
ATOM     25  C   UNL     1      13.508  -0.009   1.648  0.00  0.00    +0.101 C 
BRANCH  25  26
ATOM     26  N   UNL     1      13.036  -0.160   3.016  0.00  0.00    -0.321 NA
ATOM     27  H   UNL     1      12.691   0.726   3.389  0.00  0.00    +0.119 HD
ATOM     28  H   UNL     1      13.806  -0.423   3.630  0.00  0.00    +0.119 HD
ENDBRANCH  25  26
ENDBRANCH  21  23
ENDBRANCH  20  21
ENDBRANCH   6  20
TORSDOF 8
