REMARK  Name = 
REMARK  8 active torsions:
REMARK  status: ('A' for Active; 'I' for Inactive)
REMARK    1  A    between atoms: C_5  and  C_6
REMARK    2  A    between atoms: C_7  and  N_8
REMARK    3  A    between atoms: C_7  and  C_10
REMARK    4  A    between atoms: N_8  and  C_9
REMARK    5  A    between atoms: C_11  and  C_12
REMARK    6  A    between atoms: C_13  and  C_14
REMARK    7  A    between atoms: N_15  and  C_16
REMARK    8  A    between atoms: C_17  and  C_18
REMARK                            x       y       z     vdW  Elec       q    Type
REMARK                         _______ _______ _______ _____ _____    ______ ____
ROOT
ATOM      1  C   UNL     1       2.738  -1.276   0.066  0.00  0.00    +0.023 C 
ATOM      2  C   UNL     1       4.083  -1.164  -0.038  0.00  0.00    +0.027 C 
ENDROOT
BRANCH   1   7
ATOM      3  C   UNL     1      -0.522  -1.331   0.525  0.00  0.00    +0.062 C 
ATOM      4  C   UNL     1      -1.506  -0.176   0.540  0.00  0.00    -0.022 C 
ATOM      5  C   UNL     1      -0.544   0.758   0.360  0.00  0.00    -0.000 C 
ATOM      6  C   UNL     1       0.497  -0.239   0.297  0.00  0.00    -0.044 C 
ATOM      7  C   UNL     1       1.819  -0.155   0.110  0.00  0.00    +0.006 C 
ENDBRANCH   1   7
BRANCH   2   8
ATOM      8  N   UNL     1       4.718   0.075  -0.089  0.00  0.00    -0.347 N 
ATOM      9  C   UNL     1       5.151   0.665  -1.351  0.00  0.00    +0.125 C 
ATOM     10  H   UNL     1       5.480   0.101   0.585  0.00  0.00    +0.146 HD
ENDBRANCH   2   8
BRANCH   2  11
ATOM     11  C   UNL     1       4.898  -2.388   0.014  0.00  0.00    +0.023 C 
ATOM     12  C   UNL     1       6.234  -2.475  -0.122  0.00  0.00    +0.002 C 
BRANCH  12  13
ATOM     13  C   UNL     1       6.975  -3.724  -0.035  0.00  0.00    +0.002 C 
ATOM     14  C   UNL     1       8.309  -3.772  -0.174  0.00  0.00    +0.020 C 
BRANCH  14  15
ATOM     15  C   UNL     1       9.075  -5.040  -0.064  0.00  0.00    +0.110 C 
ATOM     16  N   UNL     1      10.362  -5.032  -0.201  0.00  0.00    -0.264 NA
BRANCH  16  17
ATOM     17  C   UNL     1      11.015  -6.230  -0.086  0.00  0.00    +0.106 C 
ATOM     18  C   UNL     1      12.347  -6.298  -0.222  0.00  0.00    -0.011 C 
ATOM     19  C   UNL     1      13.158  -7.548  -0.117  0.00  0.00    +0.037 C 
ENDBRANCH  16  17
ENDBRANCH  14  15
ENDBRANCH  12  13
ENDBRANCH   2  11
TORSDOF 6
