REMARK  Name = 
REMARK  13 active torsions:
REMARK  status: ('A' for Active; 'I' for Inactive)
REMARK    1  A    between atoms: C_1  and  C_2
REMARK    2  A    between atoms: C_2  and  C_4
REMARK    3  A    between atoms: C_5  and  C_22
REMARK    4  A    between atoms: C_7  and  N_8
REMARK    5  A    between atoms: N_8  and  C_9
REMARK    6  A    between atoms: C_9  and  C_10
REMARK    7  A    between atoms: N_14  and  C_15
REMARK    8  A    between atoms: C_16  and  C_17
REMARK    9  A    between atoms: C_17  and  C_18
REMARK   10  A    between atoms: C_19  and  C_20
REMARK   11  A    between atoms: C_20  and  C_21
REMARK   12  A    between atoms: C_23  and  C_24
REMARK   13  A    between atoms: C_24  and  N_25
REMARK                            x       y       z     vdW  Elec       q    Type
REMARK                         _______ _______ _______ _____ _____    ______ ____
ROOT
ATOM      1  N   UNL     1       3.436   1.603  -3.341  0.00  0.00    -0.339 N 
ATOM      2  H   UNL     1       3.806   1.137  -4.169  0.00  0.00    +0.146 HD
ENDROOT
BRANCH   1   9
ATOM      3  C   UNL     1       0.995   0.163  -0.088  0.00  0.00    +0.012 C 
ATOM      4  C   UNL     1       2.541   0.094  -0.076  0.00  0.00    -0.020 C 
ATOM      5  C   UNL     1       3.106   1.316  -0.843  0.00  0.00    +0.057 C 
ATOM      6  C   UNL     1       2.994   0.090   1.391  0.00  0.00    +0.012 C 
ATOM      7  C   UNL     1       3.124  -1.126  -0.860  0.00  0.00    +0.041 C 
ATOM      8  C   UNL     1       3.333  -0.551  -2.234  0.00  0.00    -0.001 C 
ATOM      9  C   UNL     1       3.301   0.788  -2.244  0.00  0.00    +0.001 C 
BRANCH   7  10
ATOM     10  C   UNL     1       2.228  -2.338  -0.881  0.00  0.00    -0.022 C 
ATOM     11  C   UNL     1       2.535  -3.534  -0.352  0.00  0.00    -0.016 C 
BRANCH  11  12
ATOM     12  C   UNL     1       1.576  -4.679  -0.291  0.00  0.00    +0.105 C 
BRANCH  12  13
ATOM     13  N   UNL     1       2.099  -5.804  -1.046  0.00  0.00    -0.327 NA
ATOM     14  H   UNL     1       2.181  -5.529  -2.023  0.00  0.00    +0.119 HD
ATOM     15  H   UNL     1       1.414  -6.558  -1.025  0.00  0.00    +0.119 HD
ENDBRANCH  12  13
ENDBRANCH  11  12
ENDBRANCH   7  10
ENDBRANCH   1   9
BRANCH   1  16
ATOM     16  C   UNL     1       3.571   3.058  -3.321  0.00  0.00    +0.197 C 
BRANCH  16  17
ATOM     17  C   UNL     1       3.740   3.620  -4.742  0.00  0.00    +0.235 C 
ATOM     18  O   UNL     1       4.852   3.840  -5.225  0.00  0.00    -0.274 OA
ATOM     19  N   UNL     1       2.607   3.853  -5.498  0.00  0.00    -0.275 N 
ATOM     20  C   UNL     1       1.298   3.604  -5.187  0.00  0.00    +0.188 C 
ATOM     21  N   UNL     1       0.367   3.925  -6.012  0.00  0.00    -0.248 NA
ATOM     22  H   UNL     1       2.772   4.240  -6.417  0.00  0.00    +0.156 HD
BRANCH  21  23
ATOM     23  C   UNL     1      -0.903   3.644  -5.575  0.00  0.00    +0.108 C 
ATOM     24  C   UNL     1      -1.995   3.876  -6.320  0.00  0.00    -0.003 C 
BRANCH  24  25
ATOM     25  C   UNL     1      -3.395   3.564  -5.873  0.00  0.00    +0.055 C 
BRANCH  25  26
ATOM     26  C   UNL     1      -4.266   4.788  -5.863  0.00  0.00    -0.027 C 
ATOM     27  C   UNL     1      -5.399   4.927  -6.577  0.00  0.00    -0.031 C 
BRANCH  27  28
ATOM     28  C   UNL     1      -6.263   6.150  -6.546  0.00  0.00    +0.023 C 
ATOM     29  C   UNL     1      -6.364   6.787  -7.923  0.00  0.00    +0.008 C 
ENDBRANCH  27  28
ENDBRANCH  25  26
ENDBRANCH  24  25
ENDBRANCH  21  23
ENDBRANCH  16  17
ENDBRANCH   1  16
TORSDOF 10
