REMARK  Name = 
REMARK  16 active torsions:
REMARK  status: ('A' for Active; 'I' for Inactive)
REMARK    1  A    between atoms: C_1  and  C_2
REMARK    2  A    between atoms: C_5  and  C_8
REMARK    3  A    between atoms: C_8  and  C_9
REMARK    4  A    between atoms: C_8  and  C_14
REMARK    5  A    between atoms: C_9  and  C_10
REMARK    6  A    between atoms: C_10  and  C_11
REMARK    7  A    between atoms: C_12  and  C_13
REMARK    8  A    between atoms: C_14  and  C_15
REMARK    9  A    between atoms: C_16  and  C_17
REMARK   10  A    between atoms: C_17  and  C_19
REMARK   11  A    between atoms: C_19  and  N_21
REMARK   12  A    between atoms: N_21  and  C_22
REMARK   13  A    between atoms: C_23  and  C_24
REMARK   14  A    between atoms: C_23  and  C_25
REMARK   15  A    between atoms: C_26  and  C_27
REMARK   16  A    between atoms: C_27  and  C_29
REMARK                            x       y       z     vdW  Elec       q    Type
REMARK                         _______ _______ _______ _____ _____    ______ ____
ROOT
ATOM      1  C   UNL     1      -7.521   2.281  -0.918  0.00  0.00    -0.012 C 
ATOM      2  C   UNL     1      -8.189   1.150  -1.227  0.00  0.00    +0.018 C 
ENDROOT
BRANCH   1   4
ATOM      3  C   UNL     1      -5.559   1.210   0.215  0.00  0.00    -0.026 C 
ATOM      4  C   UNL     1      -6.132   2.221  -0.462  0.00  0.00    +0.005 C 
BRANCH   3   5
ATOM      5  C   UNL     1      -4.088   1.145   0.518  0.00  0.00    +0.031 C 
BRANCH   5   6
ATOM      6  C   UNL     1      -3.314  -0.103  -0.027  0.00  0.00    -0.004 C 
BRANCH   6  11
ATOM      7  C   UNL     1      -3.783  -1.328  -5.856  0.00  0.00    +0.039 C 
ATOM      8  C   UNL     1      -3.707  -1.067  -4.383  0.00  0.00    -0.077 C 
ATOM      9  C   UNL     1      -4.737  -0.541  -3.705  0.00  0.00    -0.028 C 
ATOM     10  C   UNL     1      -4.667  -0.171  -2.259  0.00  0.00    +0.031 C 
ATOM     11  C   UNL     1      -3.261  -0.159  -1.610  0.00  0.00    -0.004 C 
ATOM     12  C   UNL     1      -2.478  -1.373  -2.159  0.00  0.00    +0.008 C 
ATOM     13  C   UNL     1      -2.410  -1.392  -3.695  0.00  0.00    +0.030 C 
ENDBRANCH   6  11
BRANCH   6  14
ATOM     14  C   UNL     1      -1.875  -0.127   0.599  0.00  0.00    +0.008 C 
BRANCH  14  15
ATOM     15  C   UNL     1      -1.862  -0.218   2.136  0.00  0.00    +0.027 C 
BRANCH  15  16
ATOM     16  C   UNL     1      -0.495  -0.170   2.768  0.00  0.00    -0.031 C 
ATOM     17  C   UNL     1      -0.110   0.832   3.578  0.00  0.00    -0.034 C 
ATOM     18  C   UNL     1       1.151   0.856   4.378  0.00  0.00    +0.035 C 
ENDBRANCH  15  16
ENDBRANCH  14  15
ENDBRANCH   6  14
ENDBRANCH   5   6
ENDBRANCH   3   5
ENDBRANCH   1   4
BRANCH   1  19
ATOM     19  C   UNL     1      -8.191   3.581  -1.145  0.00  0.00    +0.030 C 
ATOM     20  C   UNL     1      -8.684   3.878  -2.361  0.00  0.00    +0.034 C 
BRANCH  19  21
ATOM     21  N   UNL     1      -8.222   4.439  -0.059  0.00  0.00    -0.320 N 
ATOM     22  H   UNL     1      -7.598   4.165   0.694  0.00  0.00    +0.152 HD
BRANCH  21  23
ATOM     23  C   UNL     1      -9.136   5.416   0.254  0.00  0.00    +0.075 C 
ATOM     24  C   UNL     1      -9.187   6.220   1.336  0.00  0.00    -0.037 C 
ATOM     25  C   UNL     1      -8.132   6.213   2.411  0.00  0.00    +0.045 C 
BRANCH  24  26
ATOM     26  C   UNL     1     -10.312   7.148   1.468  0.00  0.00    +0.005 C 
ATOM     27  C   UNL     1     -10.511   8.033   2.461  0.00  0.00    +0.008 C 
BRANCH  27  28
ATOM     28  C   UNL     1     -11.656   8.946   2.546  0.00  0.00    -0.023 C 
ATOM     29  C   UNL     1     -12.066   9.313   3.775  0.00  0.00    +0.017 C 
BRANCH  28  30
ATOM     30  C   UNL     1     -12.354   9.538   1.408  0.00  0.00    +0.078 C 
ATOM     31  C   UNL     1     -11.792   9.781   0.264  0.00  0.00    -0.021 C 
ATOM     32  N   UNL     1     -11.293  10.003  -0.771  0.00  0.00    -0.258 NA
ATOM     33  H   UNL     1     -10.275   9.914  -0.716  0.00  0.00    +0.197 HD
ENDBRANCH  28  30
ENDBRANCH  27  28
ENDBRANCH  24  26
ENDBRANCH  21  23
ENDBRANCH  19  21
ENDBRANCH   1  19
TORSDOF 13
