REMARK  Name = 
REMARK  5 active torsions:
REMARK  status: ('A' for Active; 'I' for Inactive)
REMARK    1  A    between atoms: C_9  and  C_11
REMARK    2  A    between atoms: C_12  and  C_13
REMARK    3  A    between atoms: C_13  and  N_14
REMARK    4  A    between atoms: C_19  and  C_20
REMARK    5  A    between atoms: C_20  and  C_21
REMARK                            x       y       z     vdW  Elec       q    Type
REMARK                         _______ _______ _______ _____ _____    ______ ____
ROOT
ATOM      1  C   UNL     1       5.061   0.071  -0.794  0.00  0.00    +0.005 C 
ATOM      2  C   UNL     1       5.994  -0.388   0.041  0.00  0.00    -0.011 C 
ENDROOT
BRANCH   1  11
ATOM      3  C   UNL     1       1.522  -0.563  -2.014  0.00  0.00    -0.036 C 
ATOM      4  C   UNL     1       0.527   0.348  -1.995  0.00  0.00    +0.004 C 
ATOM      5  C   UNL     1      -0.747  -0.332  -2.025  0.00  0.00    -0.003 C 
ATOM      6  C   UNL     1      -0.550  -1.658  -2.036  0.00  0.00    -0.014 C 
ATOM      7  C   UNL     1       0.909  -1.948  -1.778  0.00  0.00    +0.072 C 
ATOM      8  C   UNL     1       1.097  -2.338  -0.305  0.00  0.00    +0.036 C 
ATOM      9  C   UNL     1       2.069  -1.763   0.346  0.00  0.00    -0.123 C 
ATOM     10  C   UNL     1       3.043  -0.915   0.470  0.00  0.00    +0.059 C 
ATOM     11  C   UNL     1       3.663  -0.409  -0.765  0.00  0.00    -0.017 C 
ATOM     12  C   UNL     1       2.939  -0.273  -1.900  0.00  0.00    +0.013 C 
ENDBRANCH   1  11
BRANCH   2  13
ATOM     13  C   UNL     1       7.436   0.050   0.065  0.00  0.00    +0.112 C 
BRANCH  13  14
ATOM     14  N   UNL     1       8.364  -1.082  -0.053  0.00  0.00    -0.296 NA
ATOM     15  C   UNL     1       8.303  -1.738  -1.368  0.00  0.00    +0.085 C 
ATOM     16  C   UNL     1       9.179  -2.995  -1.424  0.00  0.00    +0.015 C 
ATOM     17  C   UNL     1      10.601  -2.741  -0.941  0.00  0.00    +0.003 C 
ATOM     18  C   UNL     1      10.572  -2.028   0.406  0.00  0.00    +0.019 C 
ATOM     19  C   UNL     1       9.747  -0.727   0.349  0.00  0.00    +0.057 C 
BRANCH  19  20
ATOM     20  C   UNL     1      10.407   0.372  -0.526  0.00  0.00    +0.015 C 
ATOM     21  C   UNL     1      11.795   0.785  -0.049  0.00  0.00    +0.005 C 
ENDBRANCH  19  20
ENDBRANCH  13  14
ENDBRANCH   2  13
TORSDOF 4
