REMARK  Name = 
REMARK  2 active torsions:
REMARK  status: ('A' for Active; 'I' for Inactive)
REMARK    1  A    between atoms: C_11  and  N_12
REMARK    2  A    between atoms: C_14  and  C_15
REMARK                            x       y       z     vdW  Elec       q    Type
REMARK                         _______ _______ _______ _____ _____    ______ ____
ROOT
ATOM      1  C   UNL     1       0.826  -1.129  -0.468  0.00  0.00    +0.028 C 
ATOM      2  C   UNL     1      -0.447  -1.559  -0.476  0.00  0.00    +0.002 C 
ATOM      3  C   UNL     1      -1.592  -0.912   0.205  0.00  0.00    +0.001 C 
ATOM      4  C   UNL     1      -1.963   0.296  -0.272  0.00  0.00    +0.008 C 
ATOM      5  C   UNL     1      -1.135   1.434   0.155  0.00  0.00    +0.051 C 
ATOM      6  C   UNL     1      -0.269   1.880  -0.716  0.00  0.00    -0.119 C 
ATOM      7  C   UNL     1       0.612   2.180  -1.622  0.00  0.00    +0.058 C 
ATOM      8  C   UNL     1       2.002   1.748  -1.589  0.00  0.00    -0.023 C 
ATOM      9  C   UNL     1       2.872   2.599  -2.186  0.00  0.00    +0.017 C 
ATOM     10  C   UNL     1       2.602   0.589  -0.901  0.00  0.00    +0.036 C 
ATOM     11  C   UNL     1       2.185  -0.626  -0.432  0.00  0.00    +0.074 C 
ENDROOT
BRANCH  11  12
ATOM     12  N   UNL     1       3.044  -1.526   0.201  0.00  0.00    -0.205 NA
ATOM     13  C   UNL     1       4.182  -1.560  -0.107  0.00  0.00    -0.016 C 
ATOM     14  C   UNL     1       5.458  -1.636  -0.398  0.00  0.00    +0.042 C 
ATOM     15  C   UNL     1       6.037  -2.063  -1.713  0.00  0.00    +0.046 C 
ENDBRANCH  11  12
TORSDOF 1
