REMARK  Name = 
REMARK  5 active torsions:
REMARK  status: ('A' for Active; 'I' for Inactive)
REMARK    1  A    between atoms: C_8  and  C_9
REMARK    2  A    between atoms: C_14  and  N_15
REMARK    3  A    between atoms: N_17  and  C_18
REMARK    4  A    between atoms: C_19  and  C_20
REMARK    5  A    between atoms: C_22  and  C_23
REMARK                            x       y       z     vdW  Elec       q    Type
REMARK                         _______ _______ _______ _____ _____    ______ ____
ROOT
ATOM      1  C   UNL     1       1.902  -1.594  -1.349  0.00  0.00    +0.082 C 
ATOM      2  C   UNL     1       1.863  -2.260  -2.718  0.00  0.00    -0.017 C 
ATOM      3  C   UNL     1       2.706  -2.574  -3.720  0.00  0.00    +0.043 C 
ATOM      4  C   UNL     1       4.155  -2.277  -3.949  0.00  0.00    +0.170 C 
ATOM      5  O   UNL     1       4.859  -3.145  -4.469  0.00  0.00    -0.291 OA
ATOM      6  C   UNL     1       4.674  -0.874  -3.670  0.00  0.00    +0.164 C 
ATOM      7  N   UNL     1       3.531   0.003  -3.919  0.00  0.00    -0.280 NA
ATOM      8  C   UNL     1       3.734   1.427  -3.914  0.00  0.00    +0.108 C 
ATOM      9  C   UNL     1       3.001   0.740  -2.768  0.00  0.00    +0.102 C 
ATOM     10  C   UNL     1       3.506   0.319  -1.460  0.00  0.00    +0.017 C 
ATOM     11  C   UNL     1       3.109  -0.810  -0.824  0.00  0.00    +0.044 C 
ENDROOT
BRANCH  11  12
ATOM     12  N   UNL     1       3.619  -1.061   0.442  0.00  0.00    -0.245 NA
ATOM     13  C   UNL     1       3.728  -2.292   0.827  0.00  0.00    +0.185 C 
ATOM     14  N   UNL     1       4.175  -2.714   2.057  0.00  0.00    -0.312 N 
ATOM     15  H   UNL     1       4.468  -1.979   2.693  0.00  0.00    +0.152 HD
BRANCH  14  16
ATOM     16  C   UNL     1       4.136  -3.994   2.560  0.00  0.00    +0.073 C 
ATOM     17  C   UNL     1       4.569  -4.449   3.748  0.00  0.00    +0.019 C 
BRANCH  17  18
ATOM     18  C   UNL     1       4.337  -5.808   4.172  0.00  0.00    -0.043 C 
ATOM     19  C   UNL     1       4.320  -6.098   5.481  0.00  0.00    -0.015 C 
ATOM     20  C   UNL     1       5.249  -6.821   4.681  0.00  0.00    +0.039 C 
ATOM     21  C   UNL     1       5.029  -8.287   4.496  0.00  0.00    +0.017 C 
ENDBRANCH  17  18
ENDBRANCH  14  16
ENDBRANCH  11  12
BRANCH   8  22
ATOM     22  C   UNL     1       2.922   2.091  -5.028  0.00  0.00    +0.164 C 
ATOM     23  N   UNL     1       3.049   3.550  -5.196  0.00  0.00    -0.283 NA
ATOM     24  C   UNL     1       3.508   2.814  -6.090  0.00  0.00    +0.106 C 
ENDBRANCH   8  22
TORSDOF 4
