REMARK  Name = 
REMARK  10 active torsions:
REMARK  status: ('A' for Active; 'I' for Inactive)
REMARK    1  A    between atoms: C_14  and  C_15
REMARK    2  A    between atoms: C_15  and  C_17
REMARK    3  A    between atoms: C_17  and  N_18
REMARK    4  A    between atoms: N_18  and  C_19
REMARK    5  A    between atoms: C_20  and  N_21
REMARK    6  A    between atoms: C_20  and  N_22
REMARK    7  A    between atoms: N_22  and  C_23
REMARK    8  A    between atoms: C_23  and  C_24
REMARK    9  A    between atoms: C_24  and  C_25
REMARK   10  A    between atoms: C_25  and  N_26
REMARK                            x       y       z     vdW  Elec       q    Type
REMARK                         _______ _______ _______ _____ _____    ______ ____
ROOT
ATOM      1  C   UNL     1       0.008  -0.886   0.934  0.00  0.00    +0.199 C 
ATOM      2  O   UNL     1       0.547  -0.724  -0.158  0.00  0.00    -0.289 OA
ENDROOT
BRANCH   1  16
ATOM      3  C   UNL     1      -1.872   1.076   0.396  0.00  0.00    +0.205 C 
ATOM      4  O   UNL     1      -2.201   2.237   1.268  0.00  0.00    -0.477 OA
ATOM      5  C   UNL     1      -1.445   3.058   0.621  0.00  0.00    +0.198 C 
ATOM      6  C   UNL     1      -1.168   2.189  -0.362  0.00  0.00    +0.048 C 
ATOM      7  C   UNL     1      -0.810   2.401  -1.793  0.00  0.00    +0.062 C 
ATOM      8  C   UNL     1      -1.259   1.450  -2.547  0.00  0.00    -0.119 C 
ATOM      9  C   UNL     1      -2.051   0.435  -2.688  0.00  0.00    +0.051 C 
ATOM     10  C   UNL     1      -3.093   0.225  -1.686  0.00  0.00    +0.012 C 
ATOM     11  C   UNL     1      -3.056   0.455  -0.345  0.00  0.00    -0.012 C 
ATOM     12  C   UNL     1      -4.186  -0.105   0.490  0.00  0.00    +0.064 C 
ATOM     13  C   UNL     1      -4.100   0.043   1.978  0.00  0.00    -0.003 C 
ATOM     14  C   UNL     1      -3.032  -0.071   2.777  0.00  0.00    +0.107 C 
ATOM     15  N   UNL     1      -1.791  -0.499   2.424  0.00  0.00    -0.252 NA
ATOM     16  C   UNL     1      -1.223  -0.074   1.328  0.00  0.00    +0.137 C 
ENDBRANCH   1  16
BRANCH   1  17
ATOM     17  C   UNL     1       0.524  -1.926   2.036  0.00  0.00    +0.182 C 
BRANCH  17  18
ATOM     18  N   UNL     1       0.872  -3.262   1.481  0.00  0.00    -0.340 N 
ATOM     19  H   UNL     1       1.507  -3.152   0.687  0.00  0.00    +0.146 HD
BRANCH  18  20
ATOM     20  C   UNL     1       1.160  -4.441   2.199  0.00  0.00    +0.106 C 
ATOM     21  C   UNL     1       0.593  -5.048   3.272  0.00  0.00    +0.095 C 
BRANCH  21  22
ATOM     22  N   UNL     1      -0.488  -4.503   3.906  0.00  0.00    -0.346 N 
ATOM     23  H   UNL     1      -1.043  -3.940   3.268  0.00  0.00    +0.144 HD
ATOM     24  H   UNL     1      -1.023  -5.235   4.359  0.00  0.00    +0.144 HD
ENDBRANCH  21  22
BRANCH  21  25
ATOM     25  N   UNL     1       0.886  -6.326   3.722  0.00  0.00    -0.332 N 
ATOM     26  H   UNL     1       0.376  -7.002   3.155  0.00  0.00    +0.147 HD
BRANCH  25  27
ATOM     27  C   UNL     1       2.184  -6.866   4.117  0.00  0.00    +0.104 C 
BRANCH  27  28
ATOM     28  C   UNL     1       2.680  -6.299   5.450  0.00  0.00    +0.033 C 
BRANCH  28  29
ATOM     29  C   UNL     1       1.728  -6.585   6.615  0.00  0.00    +0.079 C 
BRANCH  29  30
ATOM     30  N   UNL     1       2.237  -6.005   7.860  0.00  0.00    -0.330 NA
ATOM     31  H   UNL     1       3.095  -6.475   8.142  0.00  0.00    +0.118 HD
ATOM     32  H   UNL     1       1.559  -6.159   8.604  0.00  0.00    +0.118 HD
ENDBRANCH  29  30
ENDBRANCH  28  29
ENDBRANCH  27  28
ENDBRANCH  25  27
ENDBRANCH  21  25
ENDBRANCH  18  20
ENDBRANCH  17  18
ENDBRANCH   1  17
TORSDOF 10
