REMARK  Name = 
REMARK  7 active torsions:
REMARK  status: ('A' for Active; 'I' for Inactive)
REMARK    1  A    between atoms: C_2  and  C_3
REMARK    2  A    between atoms: C_4  and  C_5
REMARK    3  A    between atoms: C_6  and  C_7
REMARK    4  A    between atoms: C_7  and  C_11
REMARK    5  A    between atoms: C_8  and  C_9
REMARK    6  A    between atoms: C_11  and  C_12
REMARK    7  A    between atoms: C_13  and  C_14
REMARK                            x       y       z     vdW  Elec       q    Type
REMARK                         _______ _______ _______ _____ _____    ______ ____
ROOT
ATOM      1  C   UNL     1       7.156  -0.399   4.034  0.00  0.00    -0.044 C 
ATOM      2  C   UNL     1       6.500  -0.565   5.203  0.00  0.00    +0.003 C 
ENDROOT
BRANCH   1   4
ATOM      3  C   UNL     1       5.781  -1.216   2.160  0.00  0.00    +0.000 C 
ATOM      4  C   UNL     1       6.548  -0.256   2.709  0.00  0.00    +0.004 C 
BRANCH   3   6
ATOM      5  C   UNL     1       4.441  -2.226   0.416  0.00  0.00    -0.001 C 
ATOM      6  C   UNL     1       5.199  -1.196   0.829  0.00  0.00    -0.000 C 
BRANCH   5   8
ATOM      7  C   UNL     1       3.033  -3.418  -1.169  0.00  0.00    +0.008 C 
ATOM      8  C   UNL     1       3.784  -2.350  -0.865  0.00  0.00    -0.008 C 
ENDBRANCH   5   8
ENDBRANCH   3   6
ENDBRANCH   1   4
BRANCH   2   9
ATOM      9  C   UNL     1       5.075  -0.596   5.452  0.00  0.00    -0.007 C 
ATOM     10  C   UNL     1       4.569  -0.760   6.683  0.00  0.00    +0.008 C 
ENDBRANCH   2   9
BRANCH   1  11
ATOM     11  C   UNL     1       8.677  -0.435   4.030  0.00  0.00    +0.062 C 
BRANCH  11  12
ATOM     12  C   UNL     1       9.389   0.886   4.197  0.00  0.00    -0.019 C 
ATOM     13  C   UNL     1       8.839   2.099   4.357  0.00  0.00    +0.039 C 
BRANCH  13  14
ATOM     14  C   UNL     1       9.700   3.291   4.509  0.00  0.00    +0.250 C 
ATOM     15  O   UNL     1       9.222   4.410   4.644  0.00  0.00    -0.296 OA
ENDBRANCH  13  14
ENDBRANCH  11  12
ENDBRANCH   1  11
TORSDOF 7
