REMARK  Name = 
REMARK  5 active torsions:
REMARK  status: ('A' for Active; 'I' for Inactive)
REMARK    1  A    between atoms: C_2  and  C_3
REMARK    2  A    between atoms: C_4  and  C_5
REMARK    3  A    between atoms: C_5  and  C_9
REMARK    4  A    between atoms: C_6  and  N_7
REMARK    5  A    between atoms: N_7  and  C_8
REMARK                            x       y       z     vdW  Elec       q    Type
REMARK                         _______ _______ _______ _____ _____    ______ ____
ROOT
ATOM      1  C   UNL     1       6.066  -0.300   0.980  0.00  0.00    -0.036 C 
ATOM      2  C   UNL     1       6.756  -0.053  -0.149  0.00  0.00    +0.070 C 
ATOM      3  C   UNL     1       6.784  -0.607   2.280  0.00  0.00    +0.045 C 
ENDROOT
BRANCH   2   4
ATOM      4  N   UNL     1       6.320   0.247  -1.407  0.00  0.00    -0.352 N 
ATOM      5  C   UNL     1       7.000   0.536  -2.634  0.00  0.00    +0.125 C 
ATOM      6  H   UNL     1       5.287   0.283  -1.531  0.00  0.00    +0.145 HD
ENDBRANCH   2   4
BRANCH   1   8
ATOM      7  C   UNL     1       3.892   0.006   2.067  0.00  0.00    +0.060 C 
ATOM      8  C   UNL     1       4.620  -0.313   1.001  0.00  0.00    +0.013 C 
BRANCH   7  10
ATOM      9  C   UNL     1       1.069   0.007   2.120  0.00  0.00    +0.009 C 
ATOM     10  C   UNL     1       2.372   0.007   2.095  0.00  0.00    -0.077 C 
ENDBRANCH   7  10
ENDBRANCH   1   8
TORSDOF 3
