REMARK  Name = 
REMARK  4 active torsions:
REMARK  status: ('A' for Active; 'I' for Inactive)
REMARK    1  A    between atoms: C_13  and  C_14
REMARK    2  A    between atoms: C_21  and  C_22
REMARK    3  A    between atoms: C_23  and  C_24
REMARK    4  A    between atoms: C_27  and  C_28
REMARK                            x       y       z     vdW  Elec       q    Type
REMARK                         _______ _______ _______ _____ _____    ______ ____
ROOT
ATOM      1  C   UNL     1      -2.546   0.894  -0.406  0.00  0.00    +0.049 C 
ATOM      2  C   UNL     1      -1.903   1.239  -1.792  0.00  0.00    -0.022 C 
ATOM      3  C   UNL     1      -1.463  -0.048  -1.856  0.00  0.00    -0.022 C 
ATOM      4  C   UNL     1      -1.303  -0.073  -0.272  0.00  0.00    +0.045 C 
ATOM      5  C   UNL     1      -1.588  -1.360   0.610  0.00  0.00    -0.018 C 
ATOM      6  C   UNL     1      -2.711  -2.095   0.417  0.00  0.00    -0.057 C 
ATOM      7  C   UNL     1      -3.474  -1.529  -0.686  0.00  0.00    +0.072 C 
ATOM      8  C   UNL     1      -3.861   0.223  -0.404  0.00  0.00    -0.046 C 
ATOM      9  C   UNL     1      -4.603  -0.810  -0.518  0.00  0.00    -0.035 C 
ATOM     10  C   UNL     1      -5.844  -1.337  -0.368  0.00  0.00    +0.005 C 
ATOM     11  C   UNL     1      -5.890  -2.572  -0.907  0.00  0.00    +0.008 C 
ATOM     12  C   UNL     1      -6.362  -3.614  -0.065  0.00  0.00    -0.022 C 
ATOM     13  C   UNL     1      -7.659  -3.577   0.263  0.00  0.00    -0.022 C 
ATOM     14  C   UNL     1      -8.637  -2.468  -0.103  0.00  0.00    +0.036 C 
ATOM     15  C   UNL     1      -3.317  -3.415   1.372  0.00  0.00    +0.067 C 
ATOM     16  C   UNL     1      -4.165  -4.762   0.960  0.00  0.00    -0.028 A 
ATOM     17  C   UNL     1      -5.406  -4.748   0.209  0.00  0.00    -0.014 A 
ATOM     18  C   UNL     1      -5.938  -5.917  -0.404  0.00  0.00    +0.009 A 
ATOM     19  C   UNL     1      -5.427  -7.176  -0.166  0.00  0.00    +0.001 A 
ATOM     20  C   UNL     1      -4.437  -7.273   0.813  0.00  0.00    +0.008 A 
ATOM     21  C   UNL     1      -3.837  -6.135   1.446  0.00  0.00    -0.017 A 
ENDROOT
BRANCH  21  22
ATOM     22  C   UNL     1      -3.146  -6.675   2.711  0.00  0.00    -0.026 C 
ATOM     23  C   UNL     1      -2.055  -7.478   2.742  0.00  0.00    -0.068 C 
ATOM     24  C   UNL     1      -1.062  -7.782   1.677  0.00  0.00    +0.039 C 
ATOM     25  C   UNL     1      -1.944  -8.274   4.026  0.00  0.00    +0.032 C 
ATOM     26  C   UNL     1      -2.916  -7.592   4.969  0.00  0.00    +0.025 C 
ATOM     27  C   UNL     1      -3.918  -6.917   4.053  0.00  0.00    +0.094 C 
BRANCH  27  28
ATOM     28  C   UNL     1      -4.304  -5.540   4.567  0.00  0.00    -0.097 C 
ATOM     29  C   UNL     1      -4.634  -4.358   5.008  0.00  0.00    +0.004 C 
ENDBRANCH  27  28
ENDBRANCH  21  22
TORSDOF 2
