REMARK  Name = 
REMARK  7 active torsions:
REMARK  status: ('A' for Active; 'I' for Inactive)
REMARK    1  A    between atoms: C_2  and  C_3
REMARK    2  A    between atoms: C_21  and  N_23
REMARK    3  A    between atoms: C_26  and  O_27
REMARK    4  A    between atoms: O_27  and  C_28
REMARK    5  A    between atoms: C_29  and  C_30
REMARK    6  A    between atoms: C_30  and  N_31
REMARK    7  A    between atoms: N_31  and  C_32
REMARK                            x       y       z     vdW  Elec       q    Type
REMARK                         _______ _______ _______ _____ _____    ______ ____
ROOT
ATOM      1  C   UNL     1       2.558  -1.805  -2.146  0.00  0.00    +0.030 C 
ATOM      2  C   UNL     1       2.634  -2.294  -3.449  0.00  0.00    +0.024 C 
ATOM      3  C   UNL     1       1.592  -2.482  -4.583  0.00  0.00    +0.017 C 
ATOM      4  C   UNL     1       1.840  -2.996  -5.825  0.00  0.00    +0.068 C 
ATOM      5  N   UNL     1       1.146  -2.869  -7.065  0.00  0.00    -0.334 N 
ATOM      6  C   UNL     1       1.704  -1.971  -8.095  0.00  0.00    +0.206 C 
ATOM      7  N   UNL     1       1.363  -0.618  -7.699  0.00  0.00    -0.334 N 
ATOM      8  C   UNL     1       2.076  -0.004  -6.692  0.00  0.00    +0.068 C 
ATOM      9  C   UNL     1       1.555   0.548  -5.592  0.00  0.00    +0.015 C 
ATOM     10  C   UNL     1       2.389   1.060  -4.546  0.00  0.00    +0.001 C 
ATOM     11  C   UNL     1       1.915   1.622  -3.427  0.00  0.00    +0.001 C 
ATOM     12  C   UNL     1       2.833   2.337  -2.589  0.00  0.00    +0.007 C 
ATOM     13  C   UNL     1       2.599   2.837  -1.374  0.00  0.00    +0.042 C 
ATOM     14  S   UNL     1       3.982   3.770  -0.675  0.00  0.00    -0.118 S 
ATOM     15  C   UNL     1       3.215   4.062   0.697  0.00  0.00    -0.094 C 
ATOM     16  C   UNL     1       2.531   4.333   1.767  0.00  0.00    +0.076 C 
ATOM     17  C   UNL     1       4.958   2.323  -0.092  0.00  0.00    +0.077 C 
ATOM     18  C   UNL     1       5.786   1.627  -1.204  0.00  0.00    +0.030 C 
ATOM     19  C   UNL     1       6.381   0.215  -0.941  0.00  0.00    +0.059 C 
ATOM     20  C   UNL     1       6.288  -0.286   0.488  0.00  0.00    +0.094 C 
ATOM     21  N   UNL     1       3.669  -1.514  -1.203  0.00  0.00    -0.318 N 
ATOM     22  C   UNL     1       3.779  -0.941   0.195  0.00  0.00    +0.114 C 
ATOM     23  C   UNL     1       4.834  -0.473   1.000  0.00  0.00    +0.120 C 
ATOM     24  H   UNL     1       0.167  -2.622  -6.958  0.00  0.00    +0.147 HD
ATOM     25  H   UNL     1       0.365  -0.548  -7.531  0.00  0.00    +0.147 HD
ATOM     26  H   UNL     1       4.548  -1.671  -1.681  0.00  0.00    +0.152 HD
ENDROOT
BRANCH  19  27
ATOM     27  N   UNL     1       7.710  -0.010  -1.537  0.00  0.00    -0.327 NA
ATOM     28  H   UNL     1       7.962   0.758  -2.156  0.00  0.00    +0.118 HD
ATOM     29  H   UNL     1       7.647  -0.823  -2.159  0.00  0.00    +0.118 HD
ENDBRANCH  19  27
BRANCH   1  31
ATOM     30  C   UNL     1       0.123  -1.327  -0.952  0.00  0.00    +0.010 C 
ATOM     31  C   UNL     1       1.250  -1.526  -1.610  0.00  0.00    +0.015 C 
ENDBRANCH   1  31
BRANCH  23  32
ATOM     32  O   UNL     1       4.926   0.170   2.242  0.00  0.00    -0.467 OA
BRANCH  32  33
ATOM     33  C   UNL     1       4.558   0.683   3.452  0.00  0.00    +0.192 C 
ATOM     34  C   UNL     1       3.543   0.494   4.320  0.00  0.00    +0.026 C 
BRANCH  34  35
ATOM     35  C   UNL     1       3.238   1.046   5.743  0.00  0.00    +0.111 C 
BRANCH  35  36
ATOM     36  N   UNL     1       3.979   2.068   6.508  0.00  0.00    -0.315 NA
ATOM     37  C   UNL     1       5.027   1.577   7.410  0.00  0.00    +0.101 C 
ATOM     38  H   UNL     1       3.291   2.492   7.146  0.00  0.00    +0.122 HD
ENDBRANCH  35  36
ENDBRANCH  34  35
ENDBRANCH  32  33
ENDBRANCH  23  32
TORSDOF 6
