REMARK  Name = 
REMARK  16 active torsions:
REMARK  status: ('A' for Active; 'I' for Inactive)
REMARK    1  A    between atoms: C_1  and  C_2
REMARK    2  A    between atoms: C_2  and  C_3
REMARK    3  A    between atoms: C_4  and  C_5
REMARK    4  A    between atoms: C_6  and  C_7
REMARK    5  A    between atoms: N_8  and  N_9
REMARK    6  A    between atoms: N_9  and  C_10
REMARK    7  A    between atoms: C_10  and  C_11
REMARK    8  A    between atoms: C_10  and  C_12
REMARK    9  A    between atoms: C_14  and  C_15
REMARK   10  A    between atoms: C_16  and  N_17
REMARK   11  A    between atoms: N_19  and  C_20
REMARK   12  A    between atoms: N_19  and  C_21
REMARK   13  A    between atoms: C_22  and  C_23
REMARK   14  A    between atoms: C_24  and  C_25
REMARK   15  A    between atoms: C_26  and  C_27
REMARK   16  A    between atoms: C_27  and  C_28
REMARK                            x       y       z     vdW  Elec       q    Type
REMARK                         _______ _______ _______ _____ _____    ______ ____
ROOT
ATOM      1  C   UNL     1      11.229  -3.625   2.702  0.00  0.00    +0.047 C 
ATOM      2  C   UNL     1      12.110  -4.392   3.293  0.00  0.00    -0.122 C 
ATOM      3  C   UNL     1      12.984  -5.186   3.853  0.00  0.00    +0.052 C 
ENDROOT
BRANCH   1   4
ATOM      4  C   UNL     1       9.729  -3.828   2.726  0.00  0.00    +0.116 C 
ATOM      5  C   UNL     1       9.292  -4.762   1.591  0.00  0.00    +0.034 C 
BRANCH   4   6
ATOM      6  N   UNL     1       8.959  -2.576   2.596  0.00  0.00    -0.262 N 
ATOM      7  H   UNL     1       8.958  -2.239   1.633  0.00  0.00    +0.169 HD
BRANCH   6   9
ATOM      8  C   UNL     1       8.436  -0.534   3.337  0.00  0.00    +0.130 C 
ATOM      9  N   UNL     1       9.132  -1.611   3.532  0.00  0.00    -0.195 NA
BRANCH   8  11
ATOM     10  C   UNL     1       7.772   1.705   4.107  0.00  0.00    +0.001 C 
ATOM     11  C   UNL     1       8.503   0.596   4.292  0.00  0.00    +0.021 C 
BRANCH  10  15
ATOM     12  C   UNL     1       7.187   5.006   6.006  0.00  0.00    +0.039 C 
ATOM     13  C   UNL     1       7.080   3.953   4.933  0.00  0.00    -0.076 C 
ATOM     14  C   UNL     1       6.160   4.257   3.783  0.00  0.00    +0.039 C 
ATOM     15  C   UNL     1       7.789   2.811   5.045  0.00  0.00    -0.001 C 
ENDBRANCH  10  15
ENDBRANCH   8  11
ENDBRANCH   6   9
ENDBRANCH   4   6
ENDBRANCH   1   4
BRANCH   3  16
ATOM     16  C   UNL     1      14.072  -4.704   4.683  0.00  0.00    +0.028 C 
ATOM     17  C   UNL     1      15.003  -5.472   5.281  0.00  0.00    +0.113 C 
BRANCH  17  18
ATOM     18  N   UNL     1      15.986  -4.904   6.052  0.00  0.00    -0.248 NA
ATOM     19  C   UNL     1      16.868  -5.660   6.631  0.00  0.00    +0.188 C 
ATOM     20  N   UNL     1      17.911  -5.210   7.449  0.00  0.00    -0.301 N 
ATOM     21  C   UNL     1      17.993  -3.756   7.666  0.00  0.00    +0.136 C 
BRANCH  20  22
ATOM     22  C   UNL     1      18.858  -6.046   8.068  0.00  0.00    +0.076 C 
ATOM     23  C   UNL     1      19.881  -5.688   8.867  0.00  0.00    +0.015 C 
BRANCH  23  24
ATOM     24  C   UNL     1      20.837  -6.586   9.491  0.00  0.00    +0.001 C 
ATOM     25  C   UNL     1      21.828  -6.141  10.286  0.00  0.00    -0.000 C 
BRANCH  25  26
ATOM     26  C   UNL     1      22.805  -6.999  10.929  0.00  0.00    -0.004 C 
ATOM     27  C   UNL     1      23.788  -6.536  11.716  0.00  0.00    -0.027 C 
BRANCH  27  28
ATOM     28  C   UNL     1      24.826  -7.407  12.373  0.00  0.00    +0.024 C 
ATOM     29  C   UNL     1      24.814  -7.274  13.889  0.00  0.00    +0.008 C 
ENDBRANCH  27  28
ENDBRANCH  25  26
ENDBRANCH  23  24
ENDBRANCH  20  22
ENDBRANCH  17  18
ENDBRANCH   3  16
TORSDOF 11
