REMARK  Name = 
REMARK  12 active torsions:
REMARK  status: ('A' for Active; 'I' for Inactive)
REMARK    1  A    between atoms: C_1  and  C_2
REMARK    2  A    between atoms: C_2  and  C_3
REMARK    3  A    between atoms: C_4  and  C_5
REMARK    4  A    between atoms: C_6  and  C_7
REMARK    5  A    between atoms: C_7  and  C_9
REMARK    6  A    between atoms: C_9  and  C_11
REMARK    7  A    between atoms: C_12  and  C_13
REMARK    8  A    between atoms: C_12  and  C_20
REMARK    9  A    between atoms: C_13  and  C_14
REMARK   10  A    between atoms: C_13  and  N_16
REMARK   11  A    between atoms: N_17  and  C_18
REMARK   12  A    between atoms: C_18  and  N_19
REMARK                            x       y       z     vdW  Elec       q    Type
REMARK                         _______ _______ _______ _____ _____    ______ ____
ROOT
ATOM      1  C   UNL     1       9.027   2.068   3.248  0.00  0.00    +0.014 C 
ATOM      2  C   UNL     1       9.917   1.253   3.871  0.00  0.00    -0.005 C 
ENDROOT
BRANCH   2   3
ATOM      3  C   UNL     1      11.305   1.713   4.047  0.00  0.00    +0.101 C 
ATOM      4  C   UNL     1      11.911   2.552   3.253  0.00  0.00    +0.125 C 
ATOM      5  O   UNL     1      12.445   3.317   2.537  0.00  0.00    -0.232 OA
ENDBRANCH   2   3
BRANCH   1   6
ATOM      6  C   UNL     1       7.588   1.939   2.984  0.00  0.00    -0.025 C 
ATOM      7  C   UNL     1       6.827   2.859   3.622  0.00  0.00    +0.017 C 
BRANCH   6   8
ATOM      8  C   UNL     1       6.940   1.070   1.965  0.00  0.00    -0.026 C 
ATOM      9  C   UNL     1       7.670   0.552   0.959  0.00  0.00    +0.017 C 
BRANCH   8  11
ATOM     10  C   UNL     1       4.643   1.262   1.017  0.00  0.00    +0.001 C 
ATOM     11  C   UNL     1       5.491   0.815   1.962  0.00  0.00    +0.008 C 
BRANCH  10  15
ATOM     12  C   UNL     1       0.826   1.366   0.461  0.00  0.00    +0.039 C 
ATOM     13  C   UNL     1       2.300   1.557   0.206  0.00  0.00    -0.076 C 
ATOM     14  C   UNL     1       2.672   2.248  -1.077  0.00  0.00    +0.039 C 
ATOM     15  C   UNL     1       3.200   1.117   1.109  0.00  0.00    -0.001 C 
ENDBRANCH  10  15
ENDBRANCH   8  11
ENDBRANCH   6   8
ENDBRANCH   1   6
BRANCH   2  16
ATOM     16  C   UNL     1       9.608  -0.121   4.452  0.00  0.00    +0.198 C 
BRANCH  16  17
ATOM     17  C   UNL     1      10.535  -1.138   3.780  0.00  0.00    +0.107 C 
ATOM     18  N   UNL     1      11.487  -1.793   4.374  0.00  0.00    -0.309 NA
ATOM     19  H   UNL     1      11.489  -1.566   5.381  0.00  0.00    +0.186 HD
ENDBRANCH  16  17
BRANCH  16  20
ATOM     20  N   UNL     1       9.885  -0.189   5.905  0.00  0.00    -0.177 NA
ATOM     21  N   UNL     1       8.846  -0.352   6.583  0.00  0.00    -0.176 NA
BRANCH  21  22
ATOM     22  C   UNL     1       9.111  -0.829   7.948  0.00  0.00    +0.247 C 
BRANCH  22  23
ATOM     23  N   UNL     1       9.226  -2.280   7.979  0.00  0.00    -0.311 NA
ATOM     24  H   UNL     1       8.371  -2.670   7.588  0.00  0.00    +0.120 HD
ATOM     25  H   UNL     1       9.278  -2.600   8.943  0.00  0.00    +0.120 HD
ENDBRANCH  22  23
ENDBRANCH  21  22
ENDBRANCH  16  20
ENDBRANCH   2  16
TORSDOF 10
