REMARK  Name = 
REMARK  1 active torsions:
REMARK  status: ('A' for Active; 'I' for Inactive)
REMARK    1  A    between atoms: C_4  and  C_5
REMARK                            x       y       z     vdW  Elec       q    Type
REMARK                         _______ _______ _______ _____ _____    ______ ____
ROOT
ATOM      1  C   UNL     1       1.532  -0.096   0.507  0.00  0.00    +0.008 C 
ATOM      2  C   UNL     1       1.981  -0.537   1.701  0.00  0.00    +0.001 C 
ATOM      3  C   UNL     1       3.334  -0.374   1.258  0.00  0.00    +0.008 C 
ATOM      4  C   UNL     1       2.877   0.062   0.076  0.00  0.00    -0.026 C 
ENDROOT
BRANCH   4   5
ATOM      5  C   UNL     1       3.357   0.541  -1.224  0.00  0.00    +0.000 C 
ATOM      6  C   UNL     1       4.655   0.651  -1.524  0.00  0.00    +0.009 C 
ENDBRANCH   4   5
TORSDOF 1
