REMARK  Name = 
REMARK  11 active torsions:
REMARK  status: ('A' for Active; 'I' for Inactive)
REMARK    1  A    between atoms: C_1  and  C_2
REMARK    2  A    between atoms: C_2  and  C_3
REMARK    3  A    between atoms: C_2  and  N_4
REMARK    4  A    between atoms: C_17  and  C_18
REMARK    5  A    between atoms: C_18  and  N_19
REMARK    6  A    between atoms: N_20  and  C_21
REMARK    7  A    between atoms: C_21  and  S_22
REMARK    8  A    between atoms: S_22  and  C_23
REMARK    9  A    between atoms: N_24  and  C_25
REMARK   10  A    between atoms: C_26  and  C_27
REMARK   11  A    between atoms: C_28  and  C_29
REMARK                            x       y       z     vdW  Elec       q    Type
REMARK                         _______ _______ _______ _____ _____    ______ ____
ROOT
ATOM      1  N   UNL     1       3.786  -0.441  -0.317  0.00  0.00    -0.346 N 
ATOM      2  C   UNL     1       3.986  -1.802  -0.698  0.00  0.00    +0.088 A 
ATOM      3  C   UNL     1       3.429  -2.926  -0.190  0.00  0.00    +0.042 A 
ATOM      4  C   UNL     1       3.515  -4.364  -0.548  0.00  0.00    +0.034 A 
ATOM      5  C   UNL     1       2.284  -4.914  -0.676  0.00  0.00    +0.036 C 
ATOM      6  N   UNL     1       4.605  -5.261  -0.712  0.00  0.00    -0.356 N 
ATOM      7  C   UNL     1       5.961  -5.527  -0.404  0.00  0.00    +0.032 A 
ATOM      8  C   UNL     1       6.449  -6.763  -0.657  0.00  0.00    +0.036 C 
ATOM      9  C   UNL     1       6.942  -4.606   0.187  0.00  0.00    +0.025 A 
ATOM     10  C   UNL     1       6.644  -3.326   0.281  0.00  0.00    +0.002 A 
ATOM     11  C   UNL     1       7.211  -2.086   0.709  0.00  0.00    +0.000 A 
ATOM     12  C   UNL     1       6.273  -1.273   1.234  0.00  0.00    +0.002 A 
ATOM     13  C   UNL     1       6.024   0.051   0.718  0.00  0.00    +0.023 A 
ATOM     14  C   UNL     1       4.892   0.430   0.054  0.00  0.00    +0.042 A 
ATOM     15  H   UNL     1       4.217  -6.137  -1.052  0.00  0.00    +0.166 HD
ENDROOT
BRANCH   1  17
ATOM     16  C   UNL     1       1.807  -0.180  -1.853  0.00  0.00    +0.030 C 
ATOM     17  C   UNL     1       2.409   0.141  -0.478  0.00  0.00    +0.081 C 
ATOM     18  C   UNL     1       1.483  -0.263   0.673  0.00  0.00    +0.030 C 
ENDBRANCH   1  17
BRANCH  14  19
ATOM     19  C   UNL     1       4.807   1.964  -0.168  0.00  0.00    +0.219 C 
BRANCH  19  20
ATOM     20  N   UNL     1       4.284   2.371  -1.495  0.00  0.00    -0.185 NA
ATOM     21  N   UNL     1       4.043   3.604  -1.536  0.00  0.00    -0.181 NA
BRANCH  21  22
ATOM     22  C   UNL     1       3.540   4.079  -2.851  0.00  0.00    +0.240 C 
BRANCH  22  23
ATOM     23  S   UNL     1       1.758   4.458  -2.917  0.00  0.00    -0.088 S 
BRANCH  23  24
ATOM     24  C   UNL     1       1.522   4.852  -4.611  0.00  0.00    +0.153 C 
ATOM     25  N   UNL     1       2.491   4.874  -5.464  0.00  0.00    -0.256 NA
BRANCH  25  26
ATOM     26  C   UNL     1       2.155   5.178  -6.767  0.00  0.00    +0.111 C 
ATOM     27  C   UNL     1       3.082   5.198  -7.737  0.00  0.00    +0.020 C 
BRANCH  27  28
ATOM     28  C   UNL     1       2.832   5.485  -9.140  0.00  0.00    +0.001 C 
ATOM     29  C   UNL     1       3.813   5.476 -10.058  0.00  0.00    -0.001 C 
BRANCH  29  30
ATOM     30  C   UNL     1       3.619   5.741 -11.465  0.00  0.00    -0.008 C 
ATOM     31  C   UNL     1       4.609   5.716 -12.358  0.00  0.00    +0.008 C 
ENDBRANCH  29  30
ENDBRANCH  27  28
ENDBRANCH  25  26
ENDBRANCH  23  24
ENDBRANCH  22  23
ENDBRANCH  21  22
ENDBRANCH  19  20
ENDBRANCH  14  19
TORSDOF 9
