REMARK  Name = 
REMARK  12 active torsions:
REMARK  status: ('A' for Active; 'I' for Inactive)
REMARK    1  A    between atoms: C_2  and  C_3
REMARK    2  A    between atoms: C_4  and  C_5
REMARK    3  A    between atoms: C_6  and  C_7
REMARK    4  A    between atoms: C_7  and  C_8
REMARK    5  A    between atoms: C_7  and  N_10
REMARK    6  A    between atoms: N_12  and  C_13
REMARK    7  A    between atoms: C_14  and  C_15
REMARK    8  A    between atoms: C_15  and  N_16
REMARK    9  A    between atoms: N_16  and  C_17
REMARK   10  A    between atoms: C_17  and  C_19
REMARK   11  A    between atoms: C_23  and  C_24
REMARK   12  A    between atoms: C_25  and  N_26
REMARK                            x       y       z     vdW  Elec       q    Type
REMARK                         _______ _______ _______ _____ _____    ______ ____
ROOT
ATOM      1  C   UNL     1      12.394  -4.292  -2.586  0.00  0.00    +0.070 C 
ATOM      2  C   UNL     1      13.388  -3.797  -3.337  0.00  0.00    +0.007 C 
ENDROOT
BRANCH   1   5
ATOM      3  N   UNL     1      10.169  -1.958  -0.910  0.00  0.00    -0.263 NA
ATOM      4  C   UNL     1      11.157  -2.352  -1.637  0.00  0.00    +0.180 C 
ATOM      5  N   UNL     1      11.441  -3.667  -1.827  0.00  0.00    -0.312 N 
ATOM      6  H   UNL     1      10.796  -4.289  -1.347  0.00  0.00    +0.152 HD
BRANCH   3   7
ATOM      7  C   UNL     1      10.022  -0.497  -0.831  0.00  0.00    +0.170 C 
BRANCH   7   8
ATOM      8  C   UNL     1      10.821   0.002   0.367  0.00  0.00    +0.105 C 
ATOM      9  N   UNL     1      11.126  -0.742   1.386  0.00  0.00    -0.309 NA
ATOM     10  H   UNL     1      10.738  -1.682   1.197  0.00  0.00    +0.186 HD
ENDBRANCH   7   8
BRANCH   7  12
ATOM     11  C   UNL     1       7.962   0.936  -0.983  0.00  0.00    -0.002 C 
ATOM     12  C   UNL     1       8.575  -0.186  -0.573  0.00  0.00    +0.005 C 
BRANCH  11  14
ATOM     13  C   UNL     1       5.977   2.359  -1.110  0.00  0.00    -0.001 C 
ATOM     14  C   UNL     1       6.567   1.216  -0.722  0.00  0.00    -0.000 C 
BRANCH  13  16
ATOM     15  C   UNL     1       4.006   3.799  -1.244  0.00  0.00    +0.008 C 
ATOM     16  C   UNL     1       4.587   2.660  -0.854  0.00  0.00    -0.008 C 
ENDBRANCH  13  16
ENDBRANCH  11  14
ENDBRANCH   7  12
ENDBRANCH   3   7
ENDBRANCH   1   5
BRANCH   2  17
ATOM     17  C   UNL     1      14.247  -4.674  -4.194  0.00  0.00    +0.130 C 
BRANCH  17  18
ATOM     18  N   UNL     1      15.651  -4.499  -3.848  0.00  0.00    -0.341 N 
ATOM     19  H   UNL     1      16.044  -3.633  -4.217  0.00  0.00    +0.146 HD
BRANCH  18  20
ATOM     20  C   UNL     1      16.549  -5.546  -4.005  0.00  0.00    +0.020 C 
ATOM     21  C   UNL     1      16.420  -6.675  -3.290  0.00  0.00    +0.033 C 
BRANCH  20  22
ATOM     22  C   UNL     1      17.693  -5.421  -4.902  0.00  0.00    +0.023 C 
ATOM     23  C   UNL     1      17.830  -4.688  -6.024  0.00  0.00    -0.044 C 
ATOM     24  C   UNL     1      19.046  -4.809  -6.917  0.00  0.00    +0.033 C 
ATOM     25  C   UNL     1      18.577  -4.346  -8.300  0.00  0.00    +0.010 C 
ATOM     26  C   UNL     1      17.059  -4.170  -8.200  0.00  0.00    +0.015 C 
ATOM     27  C   UNL     1      16.314  -5.446  -8.608  0.00  0.00    +0.010 C 
ATOM     28  C   UNL     1      16.819  -3.825  -6.724  0.00  0.00    +0.133 C 
BRANCH  28  29
ATOM     29  N   UNL     1      17.163  -2.424  -6.461  0.00  0.00    -0.291 NA
ATOM     30  C   UNL     1      16.198  -1.592  -6.611  0.00  0.00    +0.134 C 
ENDBRANCH  28  29
ENDBRANCH  20  22
ENDBRANCH  18  20
ENDBRANCH  17  18
ENDBRANCH   2  17
TORSDOF 11
