REMARK  Name = 
REMARK  9 active torsions:
REMARK  status: ('A' for Active; 'I' for Inactive)
REMARK    1  A    between atoms: C_5  and  C_7
REMARK    2  A    between atoms: C_7  and  C_8
REMARK    3  A    between atoms: C_8  and  C_10
REMARK    4  A    between atoms: C_10  and  C_11
REMARK    5  A    between atoms: C_12  and  N_13
REMARK    6  A    between atoms: C_14  and  C_15
REMARK    7  A    between atoms: C_16  and  C_17
REMARK    8  A    between atoms: C_17  and  C_18
REMARK    9  A    between atoms: C_18  and  C_19
REMARK                            x       y       z     vdW  Elec       q    Type
REMARK                         _______ _______ _______ _____ _____    ______ ____
ROOT
ATOM      1  C   UNL     1       2.372  -2.878  -3.272  0.00  0.00    +0.120 C 
ENDROOT
BRANCH   1   2
ATOM      2  C   UNL     1       2.022  -2.532  -1.839  0.00  0.00    -0.064 C 
ATOM      3  C   UNL     1       2.803  -1.714  -1.109  0.00  0.00    +0.008 C 
BRANCH   2   4
ATOM      4  C   UNL     1       0.797  -3.199  -1.235  0.00  0.00    +0.043 C 
BRANCH   4   9
ATOM      5  C   UNL     1      -2.381  -2.993   0.180  0.00  0.00    -0.123 C 
ATOM      6  C   UNL     1      -2.153  -1.819   0.890  0.00  0.00    +0.051 C 
ATOM      7  C   UNL     1      -1.256  -0.871   0.400  0.00  0.00    +0.005 C 
ATOM      8  C   UNL     1      -0.535  -1.127  -0.770  0.00  0.00    -0.018 C 
ATOM      9  C   UNL     1      -0.631  -2.379  -1.436  0.00  0.00    +0.046 C 
ATOM     10  C   UNL     1      -1.666  -3.252  -0.989  0.00  0.00    +0.032 C 
ENDBRANCH   4   9
ENDBRANCH   2   4
ENDBRANCH   1   2
BRANCH   1  11
ATOM     11  C   UNL     1       2.615  -4.320  -3.418  0.00  0.00    -0.073 C 
ATOM     12  C   UNL     1       2.737  -5.511  -3.530  0.00  0.00    +0.035 C 
BRANCH  12  13
ATOM     13  N   UNL     1       2.795  -6.842  -3.665  0.00  0.00    -0.205 NA
ATOM     14  C   UNL     1       3.425  -7.497  -2.748  0.00  0.00    +0.121 C 
BRANCH  14  15
ATOM     15  C   UNL     1       3.503  -8.975  -2.787  0.00  0.00    +0.016 C 
ATOM     16  C   UNL     1       4.155  -9.667  -1.840  0.00  0.00    -0.025 C 
BRANCH  16  17
ATOM     17  C   UNL     1       4.273 -11.168  -1.856  0.00  0.00    +0.027 C 
BRANCH  17  18
ATOM     18  C   UNL     1       3.675 -11.811  -0.602  0.00  0.00    +0.001 C 
ATOM     19  C   UNL     1       3.795 -13.329  -0.642  0.00  0.00    +0.004 C 
ENDBRANCH  17  18
ENDBRANCH  16  17
ENDBRANCH  14  15
ENDBRANCH  12  13
ENDBRANCH   1  11
TORSDOF 8
