REMARK  Name = 
REMARK  7 active torsions:
REMARK  status: ('A' for Active; 'I' for Inactive)
REMARK    1  A    between atoms: C_1  and  C_2
REMARK    2  A    between atoms: C_2  and  C_3
REMARK    3  A    between atoms: C_3  and  C_4
REMARK    4  A    between atoms: C_14  and  C_15
REMARK    5  A    between atoms: C_15  and  C_16
REMARK    6  A    between atoms: C_17  and  C_18
REMARK    7  A    between atoms: C_19  and  C_20
REMARK                            x       y       z     vdW  Elec       q    Type
REMARK                         _______ _______ _______ _____ _____    ______ ____
ROOT
ATOM      1  C   UNL     1       4.483   1.169   0.150  0.00  0.00    +0.176 C 
ATOM      2  C   UNL     1       4.704   2.549  -0.495  0.00  0.00    +0.188 C 
ATOM      3  O   UNL     1       5.794   3.119  -0.416  0.00  0.00    -0.290 OA
ATOM      4  C   UNL     1       3.534   3.108  -1.174  0.00  0.00    +0.027 C 
ATOM      5  C   UNL     1       2.832   4.225  -0.939  0.00  0.00    +0.012 C 
ATOM      6  C   UNL     1       2.500   2.576  -1.970  0.00  0.00    -0.011 C 
ATOM      7  C   UNL     1       1.782   3.700  -1.767  0.00  0.00    +0.009 C 
ATOM      8  N   UNL     1       4.935   0.143  -0.781  0.00  0.00    -0.280 NA
ATOM      9  C   UNL     1       4.424  -0.154  -1.908  0.00  0.00    +0.106 C 
ATOM     10  C   UNL     1       3.178   0.209  -2.627  0.00  0.00    +0.024 C 
ATOM     11  C   UNL     1       2.359   1.276  -2.668  0.00  0.00    -0.034 C 
ENDROOT
BRANCH   1  12
ATOM     12  C   UNL     1       3.077   0.982   0.734  0.00  0.00    +0.034 C 
BRANCH  12  14
ATOM     13  C   UNL     1       1.339  -0.318   1.924  0.00  0.00    +0.004 C 
ATOM     14  C   UNL     1       2.790  -0.332   1.446  0.00  0.00    -0.001 C 
ENDBRANCH  12  14
ENDBRANCH   1  12
BRANCH  11  15
ATOM     15  C   UNL     1       1.065   1.126  -3.461  0.00  0.00    +0.063 C 
BRANCH  15  16
ATOM     16  C   UNL     1       1.157   1.693  -4.846  0.00  0.00    -0.022 C 
ATOM     17  C   UNL     1       1.006   0.988  -5.977  0.00  0.00    -0.004 C 
BRANCH  17  18
ATOM     18  C   UNL     1       0.991   1.624  -7.268  0.00  0.00    -0.005 C 
ATOM     19  C   UNL     1       0.836   0.968  -8.428  0.00  0.00    -0.030 C 
ATOM     20  C   UNL     1       0.729   1.659  -9.750  0.00  0.00    +0.035 C 
ENDBRANCH  17  18
ENDBRANCH  15  16
ENDBRANCH  11  15
TORSDOF 5
