REMARK  Name = 
REMARK  1 active torsions:
REMARK  status: ('A' for Active; 'I' for Inactive)
REMARK    1  A    between atoms: C_6  and  C_7
REMARK                            x       y       z     vdW  Elec       q    Type
REMARK                         _______ _______ _______ _____ _____    ______ ____
ROOT
ATOM      1  C   UNL     1      -1.383  -0.761  -1.025  0.00  0.00    +0.043 C 
ATOM      2  C   UNL     1      -0.513  -1.400  -0.064  0.00  0.00    -0.040 C 
ATOM      3  C   UNL     1       0.275  -0.445   0.556  0.00  0.00    +0.004 C 
ATOM      4  C   UNL     1      -0.202   1.115   0.307  0.00  0.00    +0.005 C 
ATOM      5  C   UNL     1      -1.532   1.322   0.028  0.00  0.00    -0.027 C 
ATOM      6  C   UNL     1      -2.161  -0.008   0.067  0.00  0.00    +0.022 C 
ATOM      7  C   UNL     1      -2.227  -0.264   1.672  0.00  0.00    +0.013 C 
ATOM      8  C   UNL     1      -2.803   2.198  -0.141  0.00  0.00    +0.109 C 
ATOM      9  N   UNL     1      -3.766   1.740  -0.899  0.00  0.00    -0.287 NA
ATOM     10  C   UNL     1      -5.111   1.339  -0.347  0.00  0.00    +0.168 C 
ATOM     11  C   UNL     1      -5.067  -0.033   0.425  0.00  0.00    -0.004 C 
ATOM     12  C   UNL     1      -4.840  -1.293  -0.072  0.00  0.00    -0.002 C 
ATOM     13  C   UNL     1      -3.920  -2.339   0.631  0.00  0.00    +0.000 C 
ATOM     14  C   UNL     1      -2.811  -2.951   0.070  0.00  0.00    +0.007 C 
ATOM     15  C   UNL     1      -1.225  -2.717   0.247  0.00  0.00    -0.029 C 
ATOM     16  C   UNL     1      -0.487  -3.821   0.319  0.00  0.00    +0.017 C 
ENDROOT
TORSDOF 0
