REMARK  Name = 
REMARK  7 active torsions:
REMARK  status: ('A' for Active; 'I' for Inactive)
REMARK    1  A    between atoms: C_6  and  C_7
REMARK    2  A    between atoms: C_11  and  C_12
REMARK    3  A    between atoms: C_12  and  C_13
REMARK    4  A    between atoms: C_13  and  C_14
REMARK    5  A    between atoms: C_14  and  C_15
REMARK    6  A    between atoms: C_15  and  C_16
REMARK    7  A    between atoms: C_16  and  C_17
REMARK                            x       y       z     vdW  Elec       q    Type
REMARK                         _______ _______ _______ _____ _____    ______ ____
ROOT
ATOM      1  C   UNL     1       0.072  -1.522   0.519  0.00  0.00    -0.041 A 
ATOM      2  C   UNL     1      -1.075  -0.781   0.846  0.00  0.00    +0.004 A 
ATOM      3  C   UNL     1      -1.621   0.040  -0.138  0.00  0.00    +0.005 A 
ATOM      4  C   UNL     1      -1.206  -0.164  -1.458  0.00  0.00    -0.036 A 
ATOM      5  C   UNL     1       0.069  -0.712  -1.666  0.00  0.00    -0.033 A 
ATOM      6  C   UNL     1       0.812  -1.029  -0.550  0.00  0.00    -0.043 A 
ATOM      7  C   UNL     1       2.288  -0.831  -0.483  0.00  0.00    +0.044 C 
ATOM      8  C   UNL     1      -1.100  -1.436  -2.199  0.00  0.00    +0.050 C 
ATOM      9  C   UNL     1      -1.665  -2.700  -1.549  0.00  0.00    +0.013 C 
ATOM     10  C   UNL     1      -0.655  -3.588  -0.788  0.00  0.00    +0.009 C 
ATOM     11  C   UNL     1      -0.085  -3.051   0.573  0.00  0.00    +0.019 C 
ENDROOT
BRANCH  11  12
ATOM     12  C   UNL     1       1.241  -3.794   0.860  0.00  0.00    +0.008 C 
BRANCH  12  13
ATOM     13  C   UNL     1       1.948  -3.400   2.155  0.00  0.00    +0.001 C 
BRANCH  13  14
ATOM     14  C   UNL     1       1.157  -3.789   3.398  0.00  0.00    +0.000 C 
BRANCH  14  15
ATOM     15  C   UNL     1       1.910  -3.372   4.658  0.00  0.00    -0.000 C 
BRANCH  15  16
ATOM     16  C   UNL     1       1.119  -3.746   5.906  0.00  0.00    -0.003 C 
ATOM     17  C   UNL     1       1.855  -3.323   7.163  0.00  0.00    +0.004 C 
ENDBRANCH  15  16
ENDBRANCH  14  15
ENDBRANCH  13  14
ENDBRANCH  12  13
ENDBRANCH  11  12
TORSDOF 5
