REMARK  Name = 
REMARK  4 active torsions:
REMARK  status: ('A' for Active; 'I' for Inactive)
REMARK    1  A    between atoms: N_10  and  C_11
REMARK    2  A    between atoms: C_11  and  C_12
REMARK    3  A    between atoms: C_11  and  C_13
REMARK    4  A    between atoms: C_11  and  N_14
REMARK                            x       y       z     vdW  Elec       q    Type
REMARK                         _______ _______ _______ _____ _____    ______ ____
ROOT
ATOM      1  C   UNL     1       1.802   0.454  -0.033  0.00  0.00    +0.092 C 
ATOM      2  C   UNL     1       2.961   0.285   0.967  0.00  0.00    -0.011 C 
ATOM      3  C   UNL     1       2.461  -0.855   1.470  0.00  0.00    -0.020 C 
ATOM      4  C   UNL     1       1.586  -1.078   0.242  0.00  0.00    +0.055 C 
ATOM      5  C   UNL     1       0.361  -1.860   0.551  0.00  0.00    -0.022 C 
ATOM      6  C   UNL     1      -0.842  -1.646   0.013  0.00  0.00    -0.030 C 
ATOM      7  C   UNL     1      -1.201  -0.472  -0.832  0.00  0.00    +0.028 C 
ATOM      8  C   UNL     1      -1.505   0.720   0.073  0.00  0.00    +0.019 C 
ATOM      9  C   UNL     1      -0.376   1.100   1.050  0.00  0.00    +0.087 C 
ATOM     10  N   UNL     1       0.827   1.518   0.339  0.00  0.00    -0.272 NA
ENDROOT
BRANCH  10  11
ATOM     11  C   UNL     1       1.410   2.820   0.775  0.00  0.00    +0.110 C 
ATOM     12  C   UNL     1       2.591   3.270  -0.135  0.00  0.00    +0.053 C 
ATOM     13  C   UNL     1       0.337   3.935   0.627  0.00  0.00    +0.053 C 
BRANCH  11  14
ATOM     14  N   UNL     1       1.844   2.740   2.181  0.00  0.00    -0.258 NA
ATOM     15  C   UNL     1       2.270   3.792   2.769  0.00  0.00    +0.186 C 
ATOM     16 CL   UNL     1       2.775   3.659   4.401  0.00  0.00    -0.071 Cl
ENDBRANCH  11  14
ENDBRANCH  10  11
TORSDOF 2
