REMARK  Name = 
REMARK  9 active torsions:
REMARK  status: ('A' for Active; 'I' for Inactive)
REMARK    1  A    between atoms: C_4  and  C_7
REMARK    2  A    between atoms: C_8  and  C_9
REMARK    3  A    between atoms: C_13  and  C_19
REMARK    4  A    between atoms: C_14  and  C_15
REMARK    5  A    between atoms: C_15  and  C_16
REMARK    6  A    between atoms: C_17  and  C_18
REMARK    7  A    between atoms: C_19  and  C_20
REMARK    8  A    between atoms: C_21  and  C_22
REMARK    9  A    between atoms: C_22  and  C_24
REMARK                            x       y       z     vdW  Elec       q    Type
REMARK                         _______ _______ _______ _____ _____    ______ ____
ROOT
ATOM      1  C   UNL     1     -10.164  -0.444   0.712  0.00  0.00    -0.025 C 
ATOM      2  C   UNL     1     -10.294   0.702   0.011  0.00  0.00    +0.050 C 
ATOM      3  S   UNL     1      -8.799   1.538  -0.234  0.00  0.00    -0.100 S 
ATOM      4  C   UNL     1      -7.950   0.325   0.698  0.00  0.00    +0.005 C 
ATOM      5  C   UNL     1      -7.654  -0.830   0.116  0.00  0.00    -0.039 C 
ATOM      6  C   UNL     1      -8.759  -0.859   1.093  0.00  0.00    +0.053 C 
ENDROOT
BRANCH   1   8
ATOM      7  C   UNL     1     -12.510  -1.286   0.771  0.00  0.00    +0.008 C 
ATOM      8  C   UNL     1     -11.330  -1.029   1.355  0.00  0.00    +0.006 C 
BRANCH   7  12
ATOM      9  C   UNL     1     -15.862  -2.991   2.826  0.00  0.00    +0.000 A 
ATOM     10  C   UNL     1     -15.084  -2.034   3.474  0.00  0.00    +0.001 A 
ATOM     11  C   UNL     1     -13.996  -1.450   2.815  0.00  0.00    +0.008 A 
ATOM     12  C   UNL     1     -13.666  -1.833   1.505  0.00  0.00    -0.025 A 
ATOM     13  C   UNL     1     -14.481  -2.766   0.855  0.00  0.00    +0.008 A 
ATOM     14  C   UNL     1     -15.567  -3.348   1.513  0.00  0.00    +0.001 A 
ENDBRANCH   7  12
ENDBRANCH   1   8
BRANCH   6  15
ATOM     15  C   UNL     1      -8.504  -1.625   2.384  0.00  0.00    +0.048 C 
BRANCH  15  16
ATOM     16  C   UNL     1      -8.409  -3.144   2.303  0.00  0.00    -0.030 C 
ATOM     17  C   UNL     1      -8.852  -3.953   1.320  0.00  0.00    -0.034 C 
ATOM     18  C   UNL     1      -8.612  -5.433   1.300  0.00  0.00    +0.035 C 
ENDBRANCH  15  16
ENDBRANCH   6  15
BRANCH   5  19
ATOM     19  C   UNL     1      -6.250  -1.333   0.288  0.00  0.00    +0.060 C 
BRANCH  19  20
ATOM     20  C   UNL     1      -5.507  -1.618  -0.989  0.00  0.00    -0.022 C 
ATOM     21  C   UNL     1      -5.958  -1.515  -2.250  0.00  0.00    -0.001 C 
BRANCH  21  22
ATOM     22  C   UNL     1      -5.182  -1.930  -3.403  0.00  0.00    -0.058 C 
ATOM     23  C   UNL     1      -4.674  -3.170  -3.487  0.00  0.00    +0.012 C 
ATOM     24  C   UNL     1      -5.028  -0.951  -4.530  0.00  0.00    +0.043 C 
ENDBRANCH  21  22
ENDBRANCH  19  20
ENDBRANCH   5  19
TORSDOF 7
