REMARK  Name = 
REMARK  0 active torsions:
REMARK  status: ('A' for Active; 'I' for Inactive)
REMARK                            x       y       z     vdW  Elec       q    Type
REMARK                         _______ _______ _______ _____ _____    ______ ____
ROOT
ATOM      1  C   UNL     1       1.068  -1.053  -1.212  0.00  0.00    +0.141 C 
ATOM      2  C   UNL     1      -0.409  -1.493  -0.958  0.00  0.00    -0.014 C 
ATOM      3  C   UNL     1      -1.364  -0.521  -0.894  0.00  0.00    -0.018 C 
ATOM      4  C   UNL     1      -1.012   0.678  -0.046  0.00  0.00    +0.046 C 
ATOM      5  C   UNL     1       0.422   0.515   0.565  0.00  0.00    +0.109 C 
ATOM      6  N   UNL     1       1.046  -0.823   0.228  0.00  0.00    -0.325 N 
ATOM      7  C   UNL     1       0.251  -1.878   0.303  0.00  0.00    +0.027 C 
ATOM      8  C   UNL     1       0.090  -2.890   1.153  0.00  0.00    +0.033 C 
ENDROOT
TORSDOF 0
