REMARK  Name = 
REMARK  11 active torsions:
REMARK  status: ('A' for Active; 'I' for Inactive)
REMARK    1  A    between atoms: C_2  and  C_3
REMARK    2  A    between atoms: C_2  and  C_6
REMARK    3  A    between atoms: C_7  and  C_8
REMARK    4  A    between atoms: C_9  and  C_10
REMARK    5  A    between atoms: N_16  and  O_17
REMARK    6  A    between atoms: C_19  and  C_20
REMARK    7  A    between atoms: C_20  and  C_22
REMARK    8  A    between atoms: C_22  and  C_23
REMARK    9  A    between atoms: C_23  and  C_24
REMARK   10  A    between atoms: C_27  and  C_28
REMARK   11  A    between atoms: C_28  and  N_29
REMARK                            x       y       z     vdW  Elec       q    Type
REMARK                         _______ _______ _______ _____ _____    ______ ____
ROOT
ATOM      1  C   UNL     1       5.766  -1.203   3.795  0.00  0.00    +0.001 A 
ATOM      2  C   UNL     1       6.801  -0.587   4.494  0.00  0.00    +0.010 A 
ATOM      3  C   UNL     1       7.347  -1.215   5.654  0.00  0.00    +0.001 A 
ATOM      4  C   UNL     1       6.907  -2.487   6.115  0.00  0.00    +0.012 A 
ATOM      5  C   UNL     1       5.889  -3.033   5.398  0.00  0.00    +0.027 A 
ATOM      6  C   UNL     1       5.354  -2.383   4.329  0.00  0.00    +0.086 A 
ATOM      7  N   UNL     1       4.403  -3.327   4.194  0.00  0.00    -0.222 N 
ATOM      8  C   UNL     1       4.979  -4.127   5.091  0.00  0.00    +0.080 C 
ATOM      9  C   UNL     1       4.598  -5.383   5.316  0.00  0.00    +0.032 C 
ENDROOT
BRANCH   1  11
ATOM     10  C   UNL     1       3.958   0.040   2.749  0.00  0.00    +0.000 C 
ATOM     11  C   UNL     1       5.082  -0.686   2.624  0.00  0.00    +0.010 C 
BRANCH  10  13
ATOM     12  C   UNL     1       1.973   1.042   1.696  0.00  0.00    -0.016 C 
ATOM     13  C   UNL     1       3.103   0.319   1.624  0.00  0.00    -0.003 C 
BRANCH  12  15
ATOM     14  C   UNL     1       1.708   1.950  -0.709  0.00  0.00    +0.046 C 
ATOM     15  C   UNL     1       1.054   1.246   0.558  0.00  0.00    +0.011 C 
ATOM     16  C   UNL     1      -0.000   0.199   0.342  0.00  0.00    +0.020 C 
ATOM     17  C   UNL     1       0.787   2.575   0.145  0.00  0.00    -0.066 C 
ATOM     18  C   UNL     1       0.102   3.682   0.365  0.00  0.00    +0.008 C 
ENDBRANCH  12  15
ENDBRANCH  10  13
ENDBRANCH   1  11
BRANCH   7  19
ATOM     19  O   UNL     1       4.018  -3.808   2.951  0.00  0.00    -0.282 OA
ATOM     20  H   UNL     1       3.264  -3.227   2.747  0.00  0.00    +0.245 HD
ENDBRANCH   7  19
BRANCH   9  21
ATOM     21  C   UNL     1       4.928  -6.575   6.056  0.00  0.00    -0.052 C 
ATOM     22  C   UNL     1       5.882  -6.706   6.985  0.00  0.00    +0.012 C 
BRANCH  21  23
ATOM     23  C   UNL     1       3.994  -7.737   5.696  0.00  0.00    +0.035 C 
BRANCH  23  24
ATOM     24  C   UNL     1       4.040  -8.171   4.210  0.00  0.00    +0.008 C 
BRANCH  24  25
ATOM     25  C   UNL     1       2.906  -9.151   3.912  0.00  0.00    -0.006 C 
ATOM     26  C   UNL     1       2.809  -9.666   2.450  0.00  0.00    +0.004 C 
ATOM     27  C   UNL     1       1.278  -9.672   2.610  0.00  0.00    +0.006 C 
ATOM     28  C   UNL     1       1.439  -8.613   3.734  0.00  0.00    +0.013 C 
BRANCH  28  29
ATOM     29  C   UNL     1       1.237  -7.155   3.310  0.00  0.00    +0.144 C 
BRANCH  29  30
ATOM     30  N   UNL     1      -0.151  -6.985   2.867  0.00  0.00    -0.299 NA
ATOM     31  C   UNL     1      -0.410  -5.792   2.468  0.00  0.00    +0.134 C 
ENDBRANCH  29  30
ENDBRANCH  28  29
ENDBRANCH  24  25
ENDBRANCH  23  24
ENDBRANCH  21  23
ENDBRANCH   9  21
TORSDOF 10
