REMARK  Name = 
REMARK  8 active torsions:
REMARK  status: ('A' for Active; 'I' for Inactive)
REMARK    1  A    between atoms: C_5  and  O_6
REMARK    2  A    between atoms: C_5  and  C_7
REMARK    3  A    between atoms: C_8  and  C_9
REMARK    4  A    between atoms: C_11  and  C_12
REMARK    5  A    between atoms: C_13  and  C_14
REMARK    6  A    between atoms: C_17  and  C_22
REMARK    7  A    between atoms: C_20  and  C_21
REMARK    8  A    between atoms: C_22  and  C_23
REMARK                            x       y       z     vdW  Elec       q    Type
REMARK                         _______ _______ _______ _____ _____    ______ ____
ROOT
ATOM      1  C   UNL     1      -2.281  -6.445  -1.796  0.00  0.00    +0.019 C 
ATOM      2  C   UNL     1      -1.471  -6.231  -3.044  0.00  0.00    +0.016 C 
ATOM      3  C   UNL     1      -1.279  -5.317  -1.858  0.00  0.00    +0.019 C 
ENDROOT
BRANCH   1   5
ATOM      4  C   UNL     1      -2.190  -8.921  -1.382  0.00  0.00    +0.024 C 
ATOM      5  C   UNL     1      -2.036  -7.641  -0.983  0.00  0.00    -0.023 C 
BRANCH   4  10
ATOM      6  C   UNL     1      -3.208 -10.994  -0.484  0.00  0.00    +0.025 C 
ATOM      7  C   UNL     1      -2.911 -12.263  -0.759  0.00  0.00    -0.012 C 
ATOM      8  C   UNL     1      -1.455 -12.391  -1.023  0.00  0.00    +0.111 C 
ATOM      9  N   UNL     1      -0.934 -11.011  -1.052  0.00  0.00    -0.279 NA
ATOM     10  C   UNL     1      -1.993 -10.141  -0.539  0.00  0.00    +0.156 C 
ATOM     11  H   UNL     1      -0.781 -10.762  -2.025  0.00  0.00    +0.125 HD
BRANCH  10  12
ATOM     12  O   UNL     1      -1.664  -9.804   0.784  0.00  0.00    -0.368 OA
ATOM     13  H   UNL     1      -1.014 -10.489   1.007  0.00  0.00    +0.212 HD
ENDBRANCH  10  12
ENDBRANCH   4  10
ENDBRANCH   1   5
BRANCH   3  14
ATOM     14  C   UNL     1      -0.005  -5.367  -1.121  0.00  0.00    -0.023 C 
ATOM     15  C   UNL     1       1.193  -5.162  -1.686  0.00  0.00    -0.004 C 
BRANCH  15  16
ATOM     16  C   UNL     1       2.455  -5.202  -0.976  0.00  0.00    +0.004 C 
ATOM     17  C   UNL     1       3.686  -5.046  -1.513  0.00  0.00    -0.041 C 
ATOM     18  C   UNL     1       3.898  -4.763  -2.928  0.00  0.00    +0.007 C 
ATOM     19  C   UNL     1       5.094  -4.519  -3.484  0.00  0.00    -0.048 C 
ATOM     20  C   UNL     1       6.288  -4.509  -2.663  0.00  0.00    -0.000 C 
ATOM     21  C   UNL     1       6.226  -4.792  -1.354  0.00  0.00    -0.019 C 
ATOM     22  C   UNL     1       4.940  -5.144  -0.632  0.00  0.00    +0.039 C 
ATOM     23  C   UNL     1       5.087  -6.547  -0.026  0.00  0.00    +0.017 C 
BRANCH  19  24
ATOM     24  C   UNL     1       5.206  -4.163  -4.949  0.00  0.00    +0.032 C 
ATOM     25  C   UNL     1       6.003  -5.160  -5.777  0.00  0.00    +0.009 C 
ENDBRANCH  19  24
ENDBRANCH  15  16
ENDBRANCH   3  14
TORSDOF 6
