REMARK  Name = 
REMARK  8 active torsions:
REMARK  status: ('A' for Active; 'I' for Inactive)
REMARK    1  A    between atoms: C_1  and  C_2
REMARK    2  A    between atoms: C_3  and  C_4
REMARK    3  A    between atoms: C_4  and  C_6
REMARK    4  A    between atoms: C_6  and  N_7
REMARK    5  A    between atoms: N_7  and  C_8
REMARK    6  A    between atoms: N_7  and  C_10
REMARK    7  A    between atoms: C_8  and  N_9
REMARK    8  A    between atoms: C_11  and  C_12
REMARK                            x       y       z     vdW  Elec       q    Type
REMARK                         _______ _______ _______ _____ _____    ______ ____
ROOT
ATOM      1  N   UNL     1       7.071   0.439   2.081  0.00  0.00    -0.316 N 
ENDROOT
BRANCH   1   2
ATOM      2  C   UNL     1       7.957   0.823   3.082  0.00  0.00    +0.072 C 
ATOM      3  C   UNL     1       9.296   0.732   3.076  0.00  0.00    +0.014 C 
BRANCH   3   4
ATOM      4  C   UNL     1      10.152   1.128   4.165  0.00  0.00    -0.006 C 
ATOM      5  C   UNL     1      11.483   0.996   4.099  0.00  0.00    +0.008 C 
ENDBRANCH   3   4
ENDBRANCH   1   2
BRANCH   1   6
ATOM      6  C   UNL     1       5.617   0.698   2.199  0.00  0.00    +0.184 C 
BRANCH   6   7
ATOM      7  C   UNL     1       4.772  -0.461   2.739  0.00  0.00    +0.173 C 
ATOM      8  O   UNL     1       3.550  -0.322   2.856  0.00  0.00    -0.291 OA
BRANCH   7  11
ATOM      9  C   UNL     1       5.218  -4.055   4.112  0.00  0.00    +0.035 C 
ATOM     10  C   UNL     1       4.668  -2.745   3.654  0.00  0.00    -0.027 C 
ATOM     11  C   UNL     1       5.415  -1.754   3.138  0.00  0.00    +0.043 C 
ENDBRANCH   7  11
ENDBRANCH   6   7
ENDBRANCH   1   6
BRANCH   1  12
ATOM     12  C   UNL     1       7.495  -0.111   0.796  0.00  0.00    +0.186 C 
BRANCH  12  13
ATOM     13  N   UNL     1       8.007   0.812  -0.198  0.00  0.00    -0.315 NA
ATOM     14  H   UNL     1       7.780   1.745   0.141  0.00  0.00    +0.120 HD
ATOM     15  H   UNL     1       9.023   0.774  -0.178  0.00  0.00    +0.120 HD
ENDBRANCH  12  13
ENDBRANCH   1  12
TORSDOF 7
