REMARK  Name = 
REMARK  10 active torsions:
REMARK  status: ('A' for Active; 'I' for Inactive)
REMARK    1  A    between atoms: C_1  and  C_2
REMARK    2  A    between atoms: C_3  and  C_4
REMARK    3  A    between atoms: C_5  and  C_6
REMARK    4  A    between atoms: C_5  and  C_7
REMARK    5  A    between atoms: C_8  and  C_9
REMARK    6  A    between atoms: C_9  and  N_10
REMARK    7  A    between atoms: C_11  and  C_13
REMARK    8  A    between atoms: C_14  and  C_15
REMARK    9  A    between atoms: C_16  and  C_17
REMARK   10  A    between atoms: C_30  and  C_31
REMARK                            x       y       z     vdW  Elec       q    Type
REMARK                         _______ _______ _______ _____ _____    ______ ____
ROOT
ATOM      1  C   UNL     1      13.190  -6.215  -4.863  0.00  0.00    +0.076 C 
ATOM      2  C   UNL     1      11.548  -6.515  -5.844  0.00  0.00    +0.089 C 
ATOM      3  N   UNL     1      10.463  -6.920  -6.616  0.00  0.00    -0.291 NA
ATOM      4  C   UNL     1       9.687  -8.128  -7.458  0.00  0.00    +0.168 C 
ATOM      5  C   UNL     1      10.278  -9.505  -7.457  0.00  0.00    -0.008 C 
ATOM      6  C   UNL     1      11.329  -9.573  -8.263  0.00  0.00    -0.029 C 
ATOM      7  C   UNL     1      12.426  -8.743  -7.696  0.00  0.00    +0.031 C 
ATOM      8  C   UNL     1      13.517  -9.348  -8.467  0.00  0.00    +0.031 C 
ATOM      9  C   UNL     1      14.797  -9.009  -7.888  0.00  0.00    -0.027 C 
ATOM     10  C   UNL     1      15.936  -8.747  -7.406  0.00  0.00    -0.004 C 
ATOM     11  C   UNL     1      15.780  -7.548  -6.705  0.00  0.00    +0.000 C 
ATOM     12  C   UNL     1      16.762  -7.079  -5.993  0.00  0.00    +0.013 C 
ATOM     13  C   UNL     1      15.035  -5.832  -4.675  0.00  0.00    -0.001 C 
ATOM     14  C   UNL     1      16.402  -6.120  -4.998  0.00  0.00    +0.033 C 
ENDROOT
BRANCH  14  15
ATOM     15  C   UNL     1      17.889  -5.753  -4.402  0.00  0.00    +0.241 C 
ATOM     16  O   UNL     1      18.935  -5.921  -5.055  0.00  0.00    -0.270 OA
ATOM     17  N   UNL     1      18.110  -5.475  -3.097  0.00  0.00    -0.325 N 
ATOM     18  H   UNL     1      17.500  -5.534  -2.306  0.00  0.00    +0.145 HD
ATOM     19  H   UNL     1      19.101  -5.488  -2.845  0.00  0.00    +0.145 HD
ENDBRANCH  14  15
BRANCH   1  21
ATOM     20  C   UNL     1      12.555  -4.429  -2.756  0.00  0.00    -0.003 C 
ATOM     21  C   UNL     1      12.869  -5.601  -3.382  0.00  0.00    -0.014 C 
BRANCH  20  23
ATOM     22  C   UNL     1      14.438  -3.991  -1.217  0.00  0.00    +0.067 C 
ATOM     23  C   UNL     1      13.102  -4.110  -1.367  0.00  0.00    +0.005 C 
BRANCH  22  25
ATOM     24  N   UNL     1      16.700  -3.897  -0.628  0.00  0.00    -0.301 N 
ATOM     25  C   UNL     1      15.412  -3.824  -0.096  0.00  0.00    +0.238 C 
ATOM     26  O   UNL     1      15.120  -3.544   1.057  0.00  0.00    -0.271 OA
ATOM     27  H   UNL     1      16.823  -3.882  -1.630  0.00  0.00    +0.150 HD
BRANCH  24  28
ATOM     28  C   UNL     1      17.895  -3.641   0.124  0.00  0.00    +0.194 C 
BRANCH  28  30
ATOM     29  C   UNL     1      20.097  -5.069  -0.920  0.00  0.00    -0.069 C 
ATOM     30  C   UNL     1      19.080  -4.410  -0.438  0.00  0.00    -0.078 C 
BRANCH  29  32
ATOM     31  C   UNL     1      21.395  -7.169  -1.287  0.00  0.00    +0.012 C 
ATOM     32  C   UNL     1      21.282  -5.838  -1.482  0.00  0.00    -0.001 C 
ATOM     33  C   UNL     1      22.283  -5.001  -2.250  0.00  0.00    +0.053 C 
BRANCH  31  36
ATOM     34  C   UNL     1      23.798 -10.054  -2.166  0.00  0.00    +0.035 C 
ATOM     35  C   UNL     1      22.623  -9.308  -1.606  0.00  0.00    -0.030 C 
ATOM     36  C   UNL     1      22.490  -7.986  -1.785  0.00  0.00    -0.004 C 
ENDBRANCH  31  36
ENDBRANCH  29  32
ENDBRANCH  28  30
ENDBRANCH  24  28
ENDBRANCH  22  25
ENDBRANCH  20  23
ENDBRANCH   1  21
TORSDOF 8
