REMARK  Name = 
REMARK  13 active torsions:
REMARK  status: ('A' for Active; 'I' for Inactive)
REMARK    1  A    between atoms: C_4  and  N_5
REMARK    2  A    between atoms: C_10  and  C_11
REMARK    3  A    between atoms: C_13  and  C_14
REMARK    4  A    between atoms: C_13  and  C_15
REMARK    5  A    between atoms: C_15  and  C_16
REMARK    6  A    between atoms: C_17  and  N_18
REMARK    7  A    between atoms: C_20  and  C_21
REMARK    8  A    between atoms: C_20  and  C_25
REMARK    9  A    between atoms: C_22  and  C_23
REMARK   10  A    between atoms: C_23  and  C_24
REMARK   11  A    between atoms: C_25  and  C_26
REMARK   12  A    between atoms: C_26  and  N_27
REMARK   13  A    between atoms: N_29  and  C_30
REMARK                            x       y       z     vdW  Elec       q    Type
REMARK                         _______ _______ _______ _____ _____    ______ ____
ROOT
ATOM      1  C   UNL     1      -1.550  -0.757  -1.562  0.00  0.00    +0.006 C 
ATOM      2  C   UNL     1      -2.541  -0.209  -2.238  0.00  0.00    -0.112 C 
ATOM      3  C   UNL     1      -3.465   0.294  -3.021  0.00  0.00    -0.004 C 
ENDROOT
BRANCH   1  15
ATOM      4  C   UNL     1      -1.655   0.914   0.389  0.00  0.00    -0.050 C 
ATOM      5  C   UNL     1      -2.339   1.330   1.478  0.00  0.00    +0.002 C 
ATOM      6  C   UNL     1      -2.861   2.660   1.232  0.00  0.00    +0.019 C 
ATOM      7  C   UNL     1      -2.513   2.999  -0.022  0.00  0.00    +0.009 C 
ATOM      8  C   UNL     1      -1.349   2.119  -0.456  0.00  0.00    +0.067 C 
ATOM      9  C   UNL     1       0.007   2.701  -0.031  0.00  0.00    +0.088 C 
ATOM     10  C   UNL     1       1.259   1.888  -0.321  0.00  0.00    +0.137 C 
ATOM     11  O   UNL     1       2.340   2.493  -0.351  0.00  0.00    -0.297 OA
ATOM     12  C   UNL     1       1.223   0.376  -0.592  0.00  0.00    +0.053 C 
ATOM     13  C   UNL     1       2.649  -0.193  -0.449  0.00  0.00    +0.015 C 
ATOM     14  C   UNL     1       0.301  -0.470   0.314  0.00  0.00    +0.027 C 
ATOM     15  C   UNL     1      -1.211  -0.463  -0.051  0.00  0.00    +0.023 C 
ATOM     16  C   UNL     1      -1.957  -1.530   0.786  0.00  0.00    +0.021 C 
BRANCH   7  17
ATOM     17  N   UNL     1      -3.377   3.587  -0.924  0.00  0.00    -0.361 N 
ATOM     18  H   UNL     1      -4.278   3.780  -0.484  0.00  0.00    +0.142 HD
ATOM     19  H   UNL     1      -3.580   2.904  -1.663  0.00  0.00    +0.142 HD
ENDBRANCH   7  17
ENDBRANCH   1  15
BRANCH   1  20
ATOM     20  C   UNL     1      -0.695  -1.619  -2.382  0.00  0.00    +0.027 C 
ATOM     21  C   UNL     1      -0.029  -2.720  -2.018  0.00  0.00    +0.065 C 
BRANCH  21  22
ATOM     22  N   UNL     1       0.805  -3.456  -2.820  0.00  0.00    -0.364 N 
ATOM     23  H   UNL     1       1.130  -2.964  -3.649  0.00  0.00    +0.142 HD
ATOM     24  H   UNL     1       1.571  -3.902  -2.316  0.00  0.00    +0.142 HD
ENDBRANCH  21  22
ENDBRANCH   1  20
BRANCH   3  25
ATOM     25  C   UNL     1      -3.095   1.457  -3.847  0.00  0.00    +0.007 C 
ATOM     26  C   UNL     1      -3.864   2.110  -4.738  0.00  0.00    -0.026 C 
BRANCH  26  27
ATOM     27  C   UNL     1      -3.378   3.268  -5.573  0.00  0.00    +0.024 C 
ATOM     28  C   UNL     1      -4.181   4.537  -5.327  0.00  0.00    +0.008 C 
ENDBRANCH  26  27
ENDBRANCH   3  25
BRANCH   3  29
ATOM     29  C   UNL     1      -4.798  -0.379  -3.264  0.00  0.00    +0.062 C 
BRANCH  29  30
ATOM     30  C   UNL     1      -5.324  -1.205  -2.083  0.00  0.00    +0.107 C 
BRANCH  30  31
ATOM     31  N   UNL     1      -6.594  -1.830  -2.405  0.00  0.00    -0.335 N 
ATOM     32  C   UNL     1      -7.791  -1.190  -2.271  0.00  0.00    +0.181 C 
ATOM     33  N   UNL     1      -7.995  -0.028  -1.752  0.00  0.00    -0.249 NA
ATOM     34  H   UNL     1      -6.552  -2.650  -3.000  0.00  0.00    +0.147 HD
BRANCH  33  35
ATOM     35  C   UNL     1      -9.286   0.390  -1.685  0.00  0.00    +0.104 C 
ATOM     36  C   UNL     1      -9.605   1.585  -1.177  0.00  0.00    +0.029 C 
ENDBRANCH  33  35
ENDBRANCH  30  31
ENDBRANCH  29  30
ENDBRANCH   3  29
TORSDOF 10
