REMARK  Name = 
REMARK  2 active torsions:
REMARK  status: ('A' for Active; 'I' for Inactive)
REMARK    1  A    between atoms: C_5  and  C_6
REMARK    2  A    between atoms: C_6  and  C_7
REMARK                            x       y       z     vdW  Elec       q    Type
REMARK                         _______ _______ _______ _____ _____    ______ ____
ROOT
ATOM      1  C   UNL     1       8.202  -1.967   5.476  0.00  0.00    -0.014 C 
ATOM      2  C   UNL     1       8.526  -1.293   6.616  0.00  0.00    -0.004 C 
ATOM      3  C   UNL     1       8.644   0.037   7.248  0.00  0.00    -0.004 C 
ATOM      4  C   UNL     1       8.032   0.884   8.126  0.00  0.00    -0.023 C 
ATOM      5  C   UNL     1       6.715   1.126   8.893  0.00  0.00    +0.012 C 
ATOM      6  C   UNL     1       5.455   0.909   8.074  0.00  0.00    +0.011 C 
ATOM      7  C   UNL     1       5.066  -0.558   7.946  0.00  0.00    +0.028 C 
ATOM      8  C   UNL     1       4.386  -0.630   6.613  0.00  0.00    -0.027 C 
ATOM      9  C   UNL     1       5.140  -1.177   5.669  0.00  0.00    -0.004 C 
ATOM     10  C   UNL     1       5.451  -0.469   4.463  0.00  0.00    +0.005 C 
ATOM     11  C   UNL     1       6.592  -0.726   3.810  0.00  0.00    -0.025 C 
ATOM     12  C   UNL     1       6.773  -0.412   2.376  0.00  0.00    +0.018 C 
ATOM     13  C   UNL     1       8.097  -0.533   2.114  0.00  0.00    -0.014 C 
ATOM     14  C   UNL     1       8.685  -1.624   2.997  0.00  0.00    +0.045 C 
ATOM     15  C   UNL     1       7.567  -1.859   4.056  0.00  0.00    +0.036 C 
ATOM     16  C   UNL     1       6.713  -3.136   3.498  0.00  0.00    +0.149 C 
ATOM     17  N   UNL     1       6.245  -2.940   2.070  0.00  0.00    -0.203 N 
ATOM     18  N   UNL     1       5.064  -2.280   1.852  0.00  0.00    -0.161 NA
ATOM     19  C   UNL     1       6.160  -1.611   1.698  0.00  0.00    +0.166 C 
ENDROOT
BRANCH   5  20
ATOM     20  C   UNL     1       6.582   2.563   9.544  0.00  0.00    +0.004 C 
ATOM     21  C   UNL     1       6.461   3.765   8.604  0.00  0.00    +0.004 C 
ENDBRANCH   5  20
TORSDOF 1
