REMARK  Name = 
REMARK  7 active torsions:
REMARK  status: ('A' for Active; 'I' for Inactive)
REMARK    1  A    between atoms: C_3  and  N_4
REMARK    2  A    between atoms: N_4  and  C_5
REMARK    3  A    between atoms: C_5  and  C_6
REMARK    4  A    between atoms: C_9  and  C_10
REMARK    5  A    between atoms: C_11  and  C_16
REMARK    6  A    between atoms: C_12  and  C_13
REMARK    7  A    between atoms: C_17  and  C_18
REMARK                            x       y       z     vdW  Elec       q    Type
REMARK                         _______ _______ _______ _____ _____    ______ ____
ROOT
ATOM      1  C   UNL     1       5.578  -2.204  -0.799  0.00  0.00    -0.026 C 
ATOM      2  C   UNL     1       6.879  -2.008  -0.470  0.00  0.00    +0.013 C 
ATOM      3  C   UNL     1       6.627  -2.849  -1.495  0.00  0.00    -0.020 C 
ATOM      4  C   UNL     1       7.143  -3.632  -2.416  0.00  0.00    +0.016 C 
ENDROOT
BRANCH   4   5
ATOM      5  C   UNL     1       8.576  -3.998  -2.520  0.00  0.00    -0.018 C 
ATOM      6  C   UNL     1       9.379  -4.527  -3.471  0.00  0.00    -0.033 C 
ATOM      7  C   UNL     1      10.631  -4.412  -2.604  0.00  0.00    +0.046 C 
ATOM      8  C   UNL     1      11.334  -5.720  -2.253  0.00  0.00    +0.017 C 
ATOM      9  C   UNL     1       9.653  -3.883  -1.567  0.00  0.00    -0.040 C 
ATOM     10  C   UNL     1       9.803  -3.546  -0.283  0.00  0.00    +0.013 C 
BRANCH   6  11
ATOM     11  C   UNL     1       9.140  -4.927  -4.880  0.00  0.00    +0.000 C 
ATOM     12  C   UNL     1      10.113  -5.338  -5.705  0.00  0.00    -0.030 C 
ATOM     13  C   UNL     1       9.893  -5.654  -7.147  0.00  0.00    +0.035 C 
ENDBRANCH   6  11
ENDBRANCH   4   5
BRANCH   1  14
ATOM     14  C   UNL     1       4.802  -0.990  -0.449  0.00  0.00    +0.119 C 
BRANCH  14  15
ATOM     15  N   UNL     1       3.363  -1.182  -0.621  0.00  0.00    -0.289 NA
ATOM     16  H   UNL     1       3.163  -1.290  -1.615  0.00  0.00    +0.124 HD
BRANCH  15  19
ATOM     17  C   UNL     1       1.755   0.734  -0.929  0.00  0.00    -0.068 C 
ATOM     18  C   UNL     1       1.165  -0.043  -0.244  0.00  0.00    -0.068 C 
ATOM     19  C   UNL     1       2.604  -0.055  -0.063  0.00  0.00    +0.206 C 
ENDBRANCH  15  19
ENDBRANCH  14  15
ENDBRANCH   1  14
TORSDOF 5
