REMARK  Name = 
REMARK  3 active torsions:
REMARK  status: ('A' for Active; 'I' for Inactive)
REMARK    1  A    between atoms: C_2  and  C_3
REMARK    2  A    between atoms: C_9  and  C_12
REMARK    3  A    between atoms: C_13  and  C_14
REMARK                            x       y       z     vdW  Elec       q    Type
REMARK                         _______ _______ _______ _____ _____    ______ ____
ROOT
ATOM      1  C   UNL     1       6.628  -2.865   3.911  0.00  0.00    +0.006 C 
ATOM      2  C   UNL     1       7.966  -2.886   3.884  0.00  0.00    +0.007 C 
ENDROOT
BRANCH   2   3
ATOM      3  C   UNL     1       8.818  -2.374   4.959  0.00  0.00    -0.008 C 
ATOM      4  C   UNL     1      10.154  -2.587   4.952  0.00  0.00    +0.007 C 
ATOM      5  C   UNL     1      10.825  -1.605   5.770  0.00  0.00    -0.001 C 
ATOM      6  C   UNL     1       9.919  -0.764   6.293  0.00  0.00    +0.016 C 
ATOM      7  C   UNL     1       8.527  -1.146   5.839  0.00  0.00    +0.138 C 
ATOM      8  N   UNL     1       7.590  -1.338   7.155  0.00  0.00    -0.327 N 
ATOM      9  C   UNL     1       6.230  -0.612   7.363  0.00  0.00    +0.078 C 
ATOM     10  C   UNL     1       5.661   0.223   6.408  0.00  0.00    +0.074 C 
ATOM     11  C   UNL     1       6.933   0.040   5.597  0.00  0.00    -0.070 C 
ATOM     12  C   UNL     1       8.025  -0.117   4.901  0.00  0.00    -0.063 C 
ATOM     13  H   UNL     1       7.693  -2.222   7.635  0.00  0.00    +0.148 HD
ENDBRANCH   2   3
BRANCH   1  20
ATOM     14  C   UNL     1       5.472  -5.964   3.245  0.00  0.00    -0.040 C 
ATOM     15  C   UNL     1       4.893  -6.752   2.315  0.00  0.00    -0.017 C 
ATOM     16  C   UNL     1       3.717  -6.255   1.497  0.00  0.00    +0.078 C 
ATOM     17  C   UNL     1       3.519  -4.730   1.677  0.00  0.00    +0.008 C 
ATOM     18  C   UNL     1       3.432  -4.438   2.996  0.00  0.00    +0.005 C 
ATOM     19  C   UNL     1       4.853  -4.590   3.600  0.00  0.00    +0.074 C 
ATOM     20  C   UNL     1       5.719  -3.482   2.963  0.00  0.00    -0.022 C 
ATOM     21  C   UNL     1       5.474  -3.213   1.664  0.00  0.00    +0.076 C 
ATOM     22  N   UNL     1       4.460  -3.914   0.986  0.00  0.00    -0.323 N 
ATOM     23  H   UNL     1       4.118  -3.489   0.131  0.00  0.00    +0.151 HD
BRANCH  14  25
ATOM     24  C   UNL     1       7.860  -6.406   3.011  0.00  0.00    +0.009 C 
ATOM     25  C   UNL     1       6.784  -6.247   3.797  0.00  0.00    -0.004 C 
ENDBRANCH  14  25
ENDBRANCH   1  20
TORSDOF 3
