REMARK  Name = 
REMARK  10 active torsions:
REMARK  status: ('A' for Active; 'I' for Inactive)
REMARK    1  A    between atoms: C_4  and  C_5
REMARK    2  A    between atoms: C_6  and  N_7
REMARK    3  A    between atoms: N_7  and  C_8
REMARK    4  A    between atoms: C_8  and  C_10
REMARK    5  A    between atoms: C_13  and  C_14
REMARK    6  A    between atoms: C_13  and  C_17
REMARK    7  A    between atoms: C_17  and  N_18
REMARK    8  A    between atoms: N_18  and  C_19
REMARK    9  A    between atoms: C_20  and  C_21
REMARK   10  A    between atoms: C_20  and  O_22
REMARK                            x       y       z     vdW  Elec       q    Type
REMARK                         _______ _______ _______ _____ _____    ______ ____
ROOT
ATOM      1  C   UNL     1      -8.168  -0.871  -0.089  0.00  0.00    +0.026 C 
ATOM      2  C   UNL     1      -9.363  -1.486  -0.115  0.00  0.00    -0.045 C 
ATOM      3  C   UNL     1     -10.711  -0.792   0.011  0.00  0.00    +0.047 C 
ATOM      4  C   UNL     1     -11.660  -1.881   0.587  0.00  0.00    +0.006 C 
ATOM      5  C   UNL     1     -11.798  -1.709   2.113  0.00  0.00    +0.017 C 
ATOM      6  C   UNL     1     -10.892  -3.144   0.261  0.00  0.00    -0.018 C 
ATOM      7  C   UNL     1      -9.637  -2.898  -0.120  0.00  0.00    -0.000 C 
ENDROOT
BRANCH   1   8
ATOM      8  C   UNL     1      -6.826  -1.465  -0.057  0.00  0.00    +0.024 C 
ATOM      9  C   UNL     1      -5.877  -0.793   0.621  0.00  0.00    +0.033 C 
BRANCH   8  10
ATOM     10  N   UNL     1      -6.575  -2.638  -0.750  0.00  0.00    -0.321 N 
ATOM     11  H   UNL     1      -7.222  -2.834  -1.508  0.00  0.00    +0.152 HD
BRANCH  10  13
ATOM     12  C   UNL     1      -5.323  -4.701  -1.193  0.00  0.00    +0.015 C 
ATOM     13  C   UNL     1      -5.601  -3.579  -0.514  0.00  0.00    +0.072 C 
BRANCH  12  17
ATOM     14  C   UNL     1      -4.173  -7.626  -2.414  0.00  0.00    +0.035 C 
ATOM     15  C   UNL     1      -3.032  -7.803  -1.355  0.00  0.00    +0.035 C 
ATOM     16  C   UNL     1      -3.926  -6.705  -1.377  0.00  0.00    -0.069 C 
ATOM     17  C   UNL     1      -4.252  -5.583  -0.779  0.00  0.00    +0.000 C 
ENDBRANCH  12  17
ENDBRANCH  10  13
ENDBRANCH   8  10
ENDBRANCH   1   8
BRANCH   4  18
ATOM     18  C   UNL     1     -13.055  -1.865  -0.090  0.00  0.00    +0.112 C 
BRANCH  18  19
ATOM     19  N   UNL     1     -13.908  -2.914   0.462  0.00  0.00    -0.346 N 
ATOM     20  H   UNL     1     -13.443  -3.780   0.715  0.00  0.00    +0.146 HD
BRANCH  19  21
ATOM     21  C   UNL     1     -15.275  -2.928   0.548  0.00  0.00    +0.108 C 
ATOM     22  C   UNL     1     -16.054  -3.890   1.074  0.00  0.00    +0.104 C 
ATOM     23  C   UNL     1     -15.565  -5.165   1.696  0.00  0.00    +0.086 C 
BRANCH  22  24
ATOM     24  O   UNL     1     -17.431  -3.768   1.100  0.00  0.00    -0.510 OA
ATOM     25  H   UNL     1     -17.676  -2.921   0.694  0.00  0.00    +0.292 HD
ENDBRANCH  22  24
ENDBRANCH  19  21
ENDBRANCH  18  19
ENDBRANCH   4  18
TORSDOF 8
