REMARK  Name = 
REMARK  1 active torsions:
REMARK  status: ('A' for Active; 'I' for Inactive)
REMARK    1  A    between atoms: C_15  and  C_16
REMARK                            x       y       z     vdW  Elec       q    Type
REMARK                         _______ _______ _______ _____ _____    ______ ____
ROOT
ATOM      1  C   UNL     1      -0.934  -1.212  -0.132  0.00  0.00    +0.029 A 
ATOM      2  C   UNL     1      -0.955  -2.526  -0.048  0.00  0.00    +0.130 C 
ATOM      3  O   UNL     1      -0.008  -3.330   0.221  0.00  0.00    -0.488 OA
ATOM      4  C   UNL     1      -2.398  -2.456  -0.260  0.00  0.00    +0.057 C 
ATOM      5  C   UNL     1      -2.293  -1.113  -0.278  0.00  0.00    +0.015 A 
ATOM      6  C   UNL     1      -2.862   0.208  -0.307  0.00  0.00    +0.080 A 
ATOM      7  N   UNL     1      -4.093   0.592  -0.403  0.00  0.00    -0.247 NA
ATOM      8  C   UNL     1      -4.023   1.950  -0.224  0.00  0.00    +0.058 C 
ATOM      9  C   UNL     1      -5.117   2.699  -0.106  0.00  0.00    +0.038 C 
ATOM     10  C   UNL     1      -2.641   2.366  -0.088  0.00  0.00    +0.037 C 
ATOM     11  C   UNL     1      -1.831   1.305  -0.128  0.00  0.00    +0.003 A 
ATOM     12  C   UNL     1      -0.380   1.070   0.013  0.00  0.00    +0.014 A 
ATOM     13  C   UNL     1       0.071  -0.205   0.017  0.00  0.00    -0.032 A 
ATOM     14  C   UNL     1       1.355  -1.017   0.170  0.00  0.00    +0.080 C 
ATOM     15  C   UNL     1       1.100  -2.508   0.793  0.00  0.00    +0.175 C 
ATOM     16  C   UNL     1       2.349  -3.370   0.665  0.00  0.00    +0.052 C 
ENDROOT
TORSDOF 0
