REMARK  Name = 
REMARK  9 active torsions:
REMARK  status: ('A' for Active; 'I' for Inactive)
REMARK    1  A    between atoms: C_1  and  O_2
REMARK    2  A    between atoms: O_2  and  C_3
REMARK    3  A    between atoms: C_5  and  C_6
REMARK    4  A    between atoms: C_7  and  C_8
REMARK    5  A    between atoms: C_9  and  N_10
REMARK    6  A    between atoms: C_11  and  C_12
REMARK    7  A    between atoms: C_12  and  C_13
REMARK    8  A    between atoms: C_27  and  C_28
REMARK    9  A    between atoms: C_29  and  C_30
REMARK                            x       y       z     vdW  Elec       q    Type
REMARK                         _______ _______ _______ _____ _____    ______ ____
ROOT
ATOM      1  C   UNL     1       2.877   3.345  -3.380  0.00  0.00    +0.205 C 
ATOM      2  C   UNL     1       3.945   4.091  -3.809  0.00  0.00    +0.046 C 
ATOM      3  C   UNL     1       3.758   5.821  -4.113  0.00  0.00    +0.040 C 
ATOM      4  C   UNL     1       2.849   6.332  -2.974  0.00  0.00    +0.014 C 
ATOM      5  C   UNL     1       3.232   6.744  -5.489  0.00  0.00    +0.022 C 
ATOM      6  C   UNL     1       3.901   6.403  -6.858  0.00  0.00    +0.008 C 
ATOM      7  C   UNL     1       3.915   4.922  -6.964  0.00  0.00    +0.001 C 
ATOM      8  C   UNL     1       4.637   4.175  -8.077  0.00  0.00    +0.000 C 
ATOM      9  C   UNL     1       4.602   2.781  -7.482  0.00  0.00    +0.001 C 
ATOM     10  C   UNL     1       5.367   1.609  -8.024  0.00  0.00    +0.012 C 
ATOM     11  C   UNL     1       5.108   0.393  -7.066  0.00  0.00    +0.035 C 
ATOM     12  C   UNL     1       5.067   0.853  -5.610  0.00  0.00    -0.011 C 
ATOM     13  C   UNL     1       6.294   0.782  -5.093  0.00  0.00    -0.020 C 
ATOM     14  C   UNL     1       7.012  -0.197  -5.935  0.00  0.00    +0.004 C 
ATOM     15  C   UNL     1       6.333  -0.455  -7.060  0.00  0.00    -0.019 C 
ATOM     16  N   UNL     1       5.211   3.671  -3.199  0.00  0.00    -0.321 N 
ATOM     17  C   UNL     1       6.244   2.692  -3.339  0.00  0.00    +0.080 C 
ATOM     18  C   UNL     1       6.807   1.586  -3.972  0.00  0.00    -0.005 C 
ATOM     19  H   UNL     1       4.853   3.380  -2.269  0.00  0.00    +0.151 HD
ENDROOT
BRANCH  18  20
ATOM     20  C   UNL     1       8.160   1.165  -3.464  0.00  0.00    +0.005 C 
ATOM     21  C   UNL     1       9.149   1.978  -3.037  0.00  0.00    -0.030 C 
ATOM     22  C   UNL     1      10.536   1.551  -2.662  0.00  0.00    +0.035 C 
ENDBRANCH  18  20
BRANCH   1  24
ATOM     23  C   UNL     1       1.937   2.018  -1.565  0.00  0.00    +0.276 C 
ATOM     24  O   UNL     1       3.068   2.444  -2.329  0.00  0.00    -0.501 OA
ENDBRANCH   1  24
BRANCH   5  25
ATOM     25  C   UNL     1       3.046   8.326  -5.612  0.00  0.00    -0.003 C 
ATOM     26  C   UNL     1       3.556   9.490  -5.130  0.00  0.00    +0.106 C 
BRANCH  26  27
ATOM     27  N   UNL     1       3.068  10.725  -5.621  0.00  0.00    -0.268 NA
ATOM     28  C   UNL     1       3.635  11.850  -5.271  0.00  0.00    +0.087 C 
BRANCH  28  29
ATOM     29  C   UNL     1       3.048  13.234  -5.675  0.00  0.00    +0.074 C 
BRANCH  29  30
ATOM     30  C   UNL     1       3.944  14.337  -6.200  0.00  0.00    -0.029 C 
ATOM     31  C   UNL     1       5.237  14.282  -6.538  0.00  0.00    +0.004 C 
ENDBRANCH  29  30
ENDBRANCH  28  29
ENDBRANCH  26  27
ENDBRANCH   5  25
TORSDOF 6
