REMARK  Name = 
REMARK  20 active torsions:
REMARK  status: ('A' for Active; 'I' for Inactive)
REMARK    1  A    between atoms: C_1  and  C_2
REMARK    2  A    between atoms: C_3  and  C_4
REMARK    3  A    between atoms: C_5  and  C_6
REMARK    4  A    between atoms: C_7  and  C_8
REMARK    5  A    between atoms: C_8  and  C_9
REMARK    6  A    between atoms: C_8  and  C_10
REMARK    7  A    between atoms: C_10  and  C_11
REMARK    8  A    between atoms: C_12  and  C_13
REMARK    9  A    between atoms: C_12  and  C_14
REMARK   10  A    between atoms: C_15  and  C_17
REMARK   11  A    between atoms: C_21  and  C_22
REMARK   12  A    between atoms: C_21  and  N_23
REMARK   13  A    between atoms: N_23  and  C_24
REMARK   14  A    between atoms: N_23  and  C_25
REMARK   15  A    between atoms: C_25  and  C_27
REMARK   16  A    between atoms: C_27  and  C_28
REMARK   17  A    between atoms: C_27  and  C_29
REMARK   18  A    between atoms: C_29  and  N_30
REMARK   19  A    between atoms: N_30  and  N_31
REMARK   20  A    between atoms: N_31  and  C_32
REMARK                            x       y       z     vdW  Elec       q    Type
REMARK                         _______ _______ _______ _____ _____    ______ ____
ROOT
ATOM      1  C   UNL     1      13.130   5.478  -3.532  0.00  0.00    +0.021 C 
ATOM      2  C   UNL     1      13.703   4.350  -4.421  0.00  0.00    -0.004 C 
ATOM      3  C   UNL     1      15.224   4.103  -4.243  0.00  0.00    +0.033 C 
ATOM      4  C   UNL     1      13.394   4.496  -5.922  0.00  0.00    +0.008 C 
ATOM      5  C   UNL     1      13.799   6.844  -3.786  0.00  0.00    +0.035 C 
ATOM      6  C   UNL     1      15.236   6.982  -3.339  0.00  0.00    -0.028 C 
ATOM      7  C   UNL     1      16.104   6.036  -2.927  0.00  0.00    -0.006 C 
ATOM      8  C   UNL     1      15.949   4.518  -2.919  0.00  0.00    +0.050 C 
ATOM      9  C   UNL     1      17.351   3.860  -2.987  0.00  0.00    +0.036 C 
ENDROOT
BRANCH   1  11
ATOM     10  C   UNL     1      10.962   4.702  -2.575  0.00  0.00    -0.027 C 
ATOM     11  C   UNL     1      11.588   5.475  -3.496  0.00  0.00    -0.073 C 
ATOM     12  C   UNL     1      10.855   6.334  -4.489  0.00  0.00    +0.039 C 
BRANCH  10  13
ATOM     13  C   UNL     1       9.479   4.541  -2.365  0.00  0.00    +0.034 C 
BRANCH  13  14
ATOM     14  C   UNL     1       9.054   4.292  -0.897  0.00  0.00    +0.012 C 
ATOM     15  C   UNL     1       7.539   4.065  -0.831  0.00  0.00    +0.012 C 
BRANCH  14  17
ATOM     16  C   UNL     1       9.805   5.319   1.278  0.00  0.00    -0.004 C 
ATOM     17  C   UNL     1       9.426   5.454  -0.005  0.00  0.00    -0.023 C 
BRANCH  16  19
ATOM     18  C   UNL     1      10.500   6.337   3.391  0.00  0.00    -0.000 C 
ATOM     19  C   UNL     1      10.155   6.452   2.102  0.00  0.00    -0.000 C 
BRANCH  18  22
ATOM     20  C   UNL     1      11.524   8.524   6.367  0.00  0.00    +0.035 C 
ATOM     21  C   UNL     1      11.181   7.353   5.516  0.00  0.00    -0.030 C 
ATOM     22  C   UNL     1      10.837   7.472   4.220  0.00  0.00    -0.005 C 
ENDBRANCH  18  22
ENDBRANCH  16  19
ENDBRANCH  14  17
ENDBRANCH  13  14
ENDBRANCH  10  13
ENDBRANCH   1  11
BRANCH   8  23
ATOM     23  N   UNL     1      15.305   4.074  -1.638  0.00  0.00    -0.327 N 
ATOM     24  C   UNL     1      14.570   2.803  -1.638  0.00  0.00    +0.130 C 
BRANCH  23  25
ATOM     25  C   UNL     1      15.599   4.631  -0.366  0.00  0.00    +0.004 C 
ATOM     26  C   UNL     1      14.883   5.671   0.104  0.00  0.00    +0.029 C 
BRANCH  25  27
ATOM     27  C   UNL     1      16.641   3.943   0.541  0.00  0.00    +0.045 C 
ATOM     28  C   UNL     1      17.795   4.896   0.910  0.00  0.00    +0.015 C 
BRANCH  27  29
ATOM     29  C   UNL     1      16.058   3.366   1.865  0.00  0.00    +0.107 C 
BRANCH  29  30
ATOM     30  N   UNL     1      15.082   2.285   1.642  0.00  0.00    -0.256 NA
ATOM     31  H   UNL     1      15.559   1.543   1.122  0.00  0.00    +0.141 HD
BRANCH  30  32
ATOM     32  N   UNL     1      14.613   1.793   2.924  0.00  0.00    -0.260 NA
ATOM     33  C   UNL     1      13.618   0.751   2.676  0.00  0.00    +0.120 C 
ATOM     34  H   UNL     1      14.151   2.546   3.445  0.00  0.00    +0.140 HD
ENDBRANCH  30  32
ENDBRANCH  29  30
ENDBRANCH  27  29
ENDBRANCH  25  27
ENDBRANCH  23  25
ENDBRANCH   8  23
TORSDOF 12
