REMARK  Name = 
REMARK  19 active torsions:
REMARK  status: ('A' for Active; 'I' for Inactive)
REMARK    1  A    between atoms: C_1  and  C_2
REMARK    2  A    between atoms: C_3  and  C_4
REMARK    3  A    between atoms: C_5  and  N_6
REMARK    4  A    between atoms: C_7  and  C_8
REMARK    5  A    between atoms: C_8  and  C_9
REMARK    6  A    between atoms: C_9  and  C_10
REMARK    7  A    between atoms: C_10  and  C_11
REMARK    8  A    between atoms: C_10  and  C_15
REMARK    9  A    between atoms: C_12  and  C_13
REMARK   10  A    between atoms: C_16  and  N_17
REMARK   11  A    between atoms: C_16  and  N_21
REMARK   12  A    between atoms: N_17  and  C_18
REMARK   13  A    between atoms: C_19  and  C_20
REMARK   14  A    between atoms: C_23  and  C_24
REMARK   15  A    between atoms: C_24  and  C_25
REMARK   16  A    between atoms: C_25  and  C_26
REMARK   17  A    between atoms: C_26  and  C_27
REMARK   18  A    between atoms: C_27  and  C_28
REMARK   19  A    between atoms: C_28  and  C_29
REMARK                            x       y       z     vdW  Elec       q    Type
REMARK                         _______ _______ _______ _____ _____    ______ ____
ROOT
ATOM      1  C   UNL     1      11.722  -5.967   1.856  0.00  0.00    +0.020 C 
ATOM      2  C   UNL     1      13.072  -6.096   1.818  0.00  0.00    +0.095 C 
ENDROOT
BRANCH   2   3
ATOM      3  N   UNL     1      13.484  -7.258   2.483  0.00  0.00    -0.265 N 
ATOM      4  C   UNL     1      14.205  -7.015   3.598  0.00  0.00    +0.101 C 
ATOM      5  C   UNL     1      14.689  -7.872   2.730  0.00  0.00    +0.031 C 
BRANCH   5   6
ATOM      6  C   UNL     1      15.078  -9.264   3.088  0.00  0.00    +0.052 C 
BRANCH   6   7
ATOM      7  C   UNL     1      16.335  -9.550   2.278  0.00  0.00    +0.006 C 
BRANCH   7   8
ATOM      8  C   UNL     1      16.989 -10.900   2.546  0.00  0.00    +0.000 C 
BRANCH   8   9
ATOM      9  C   UNL     1      18.230 -11.020   1.656  0.00  0.00    -0.000 C 
BRANCH   9  10
ATOM     10  C   UNL     1      18.956 -12.343   1.857  0.00  0.00    -0.003 C 
ATOM     11  C   UNL     1      20.181 -12.439   0.960  0.00  0.00    +0.004 C 
ENDBRANCH   9  10
ENDBRANCH   8   9
ENDBRANCH   7   8
ENDBRANCH   6   7
ENDBRANCH   5   6
ENDBRANCH   2   3
BRANCH   2  12
ATOM     12  N   UNL     1      13.856  -5.055   1.324  0.00  0.00    -0.309 N 
ATOM     13  H   UNL     1      13.317  -4.272   0.980  0.00  0.00    +0.153 HD
BRANCH  12  14
ATOM     14  C   UNL     1      15.187  -4.929   1.024  0.00  0.00    +0.069 C 
ATOM     15  C   UNL     1      15.734  -3.806   0.521  0.00  0.00    -0.015 C 
ATOM     16  C   UNL     1      17.157  -3.648   0.098  0.00  0.00    +0.036 C 
ENDBRANCH  12  14
ENDBRANCH   2  12
BRANCH   1  17
ATOM     17  C   UNL     1      10.884  -4.727   1.688  0.00  0.00    +0.038 C 
BRANCH  17  18
ATOM     18  C   UNL     1      10.252  -4.326   3.022  0.00  0.00    -0.019 C 
ATOM     19  C   UNL     1       9.777  -5.169   3.948  0.00  0.00    -0.004 C 
BRANCH  19  20
ATOM     20  C   UNL     1       9.213  -4.743   5.205  0.00  0.00    -0.008 C 
ATOM     21  C   UNL     1       8.750  -5.616   6.108  0.00  0.00    +0.008 C 
ENDBRANCH  19  20
ENDBRANCH  17  18
BRANCH  17  22
ATOM     22  C   UNL     1       9.805  -4.857   0.608  0.00  0.00    +0.017 C 
BRANCH  22  23
ATOM     23  C   UNL     1      10.377  -5.236  -0.756  0.00  0.00    +0.048 C 
BRANCH  23  25
ATOM     24  N   UNL     1       8.109  -4.990  -1.661  0.00  0.00    -0.268 NA
ATOM     25  C   UNL     1       9.344  -5.316  -1.854  0.00  0.00    +0.083 C 
BRANCH  24  27
ATOM     26  C   UNL     1       5.974  -4.825  -2.664  0.00  0.00    +0.019 C 
ATOM     27  C   UNL     1       7.276  -5.130  -2.739  0.00  0.00    +0.110 C 
BRANCH  26  30
ATOM     28  C   UNL     1       2.815  -4.828  -4.836  0.00  0.00    +0.035 C 
ATOM     29  C   UNL     1       3.759  -4.665  -3.689  0.00  0.00    -0.030 C 
ATOM     30  C   UNL     1       5.062  -4.968  -3.773  0.00  0.00    -0.003 C 
ENDBRANCH  26  30
ENDBRANCH  24  27
ENDBRANCH  23  25
ENDBRANCH  22  23
ENDBRANCH  17  22
ENDBRANCH   1  17
TORSDOF 16
