REMARK  Name = 
REMARK  7 active torsions:
REMARK  status: ('A' for Active; 'I' for Inactive)
REMARK    1  A    between atoms: C_5  and  C_6
REMARK    2  A    between atoms: C_7  and  C_8
REMARK    3  A    between atoms: C_9  and  C_10
REMARK    4  A    between atoms: C_13  and  C_14
REMARK    5  A    between atoms: C_18  and  C_19
REMARK    6  A    between atoms: C_20  and  C_21
REMARK    7  A    between atoms: C_21  and  C_22
REMARK                            x       y       z     vdW  Elec       q    Type
REMARK                         _______ _______ _______ _____ _____    ______ ____
ROOT
ATOM      1  C   UNL     1       1.807   2.683  -0.073  0.00  0.00    -0.010 C 
ATOM      2  C   UNL     1       2.036   3.213  -1.296  0.00  0.00    -0.014 C 
ATOM      3  C   UNL     1       2.591   4.598  -1.178  0.00  0.00    +0.056 C 
ATOM      4  C   UNL     1       2.665   4.785   0.302  0.00  0.00    -0.006 C 
ATOM      5  C   UNL     1       2.219   3.676   0.914  0.00  0.00    +0.028 C 
ENDROOT
BRANCH   1  13
ATOM      6  C   UNL     1      -0.219   1.300  -0.447  0.00  0.00    +0.036 C 
ATOM      7  C   UNL     1      -0.265   0.530  -1.765  0.00  0.00    +0.005 C 
ATOM      8  C   UNL     1      -0.186  -0.993  -1.673  0.00  0.00    +0.005 C 
ATOM      9  C   UNL     1      -0.620  -1.612  -0.349  0.00  0.00    +0.035 C 
ATOM     10  C   UNL     1       0.476  -1.815   0.679  0.00  0.00    -0.047 C 
ATOM     11  C   UNL     1       1.426  -0.965   1.108  0.00  0.00    +0.004 C 
ATOM     12  C   UNL     1       1.809   0.391   0.768  0.00  0.00    +0.004 C 
ATOM     13  C   UNL     1       1.167   1.381   0.121  0.00  0.00    -0.039 C 
BRANCH  10  14
ATOM     14  C   UNL     1       0.475  -3.184   1.211  0.00  0.00    +0.003 C 
ATOM     15  C   UNL     1       0.378  -3.490   2.510  0.00  0.00    -0.000 C 
BRANCH  15  16
ATOM     16  C   UNL     1       0.366  -4.844   3.017  0.00  0.00    -0.005 C 
ATOM     17  C   UNL     1       0.261  -5.110   4.327  0.00  0.00    -0.030 C 
ATOM     18  C   UNL     1       0.223  -6.482   4.915  0.00  0.00    +0.035 C 
ENDBRANCH  15  16
ENDBRANCH  10  14
ENDBRANCH   1  13
BRANCH   5  19
ATOM     19  C   UNL     1       2.133   3.519   2.314  0.00  0.00    -0.066 C 
ATOM     20  C   UNL     1       2.065   3.386   3.504  0.00  0.00    -0.097 C 
BRANCH  20  21
ATOM     21  C   UNL     1       1.993   3.205   4.962  0.00  0.00    +0.094 C 
BRANCH  21  22
ATOM     22  C   UNL     1       0.573   2.839   5.435  0.00  0.00    +0.016 C 
ATOM     23  C   UNL     1      -0.445   3.961   5.182  0.00  0.00    +0.006 C 
ATOM     24  C   UNL     1      -0.303   4.872   6.388  0.00  0.00    +0.002 C 
ATOM     25  C   UNL     1      -0.057   3.937   7.572  0.00  0.00    +0.017 C 
ATOM     26  C   UNL     1       0.453   2.605   6.975  0.00  0.00    +0.031 C 
ATOM     27  C   UNL     1       1.745   2.118   7.630  0.00  0.00    +0.001 C 
ATOM     28  C   UNL     1       1.616   0.822   7.945  0.00  0.00    +0.068 C 
ATOM     29  N   UNL     1       0.369   0.358   7.642  0.00  0.00    -0.324 N 
ATOM     30  C   UNL     1      -0.467   1.382   7.252  0.00  0.00    +0.011 C 
ATOM     31  C   UNL     1      -1.803   1.333   7.219  0.00  0.00    +0.029 C 
ATOM     32  H   UNL     1       0.009  -0.500   8.036  0.00  0.00    +0.151 HD
ENDBRANCH  21  22
ENDBRANCH  20  21
ENDBRANCH   5  19
TORSDOF 6
