REMARK  Name = 
REMARK  12 active torsions:
REMARK  status: ('A' for Active; 'I' for Inactive)
REMARK    1  A    between atoms: C_1  and  C_2
REMARK    2  A    between atoms: C_3  and  C_4
REMARK    3  A    between atoms: N_6  and  C_7
REMARK    4  A    between atoms: C_7  and  C_8
REMARK    5  A    between atoms: C_8  and  C_9
REMARK    6  A    between atoms: C_11  and  C_14
REMARK    7  A    between atoms: C_12  and  C_13
REMARK    8  A    between atoms: C_14  and  C_16
REMARK    9  A    between atoms: C_16  and  C_17
REMARK   10  A    between atoms: C_20  and  C_21
REMARK   11  A    between atoms: C_22  and  C_23
REMARK   12  A    between atoms: N_25  and  C_26
REMARK                            x       y       z     vdW  Elec       q    Type
REMARK                         _______ _______ _______ _____ _____    ______ ____
ROOT
ATOM      1  C   UNL     1       8.689  -1.627   3.882  0.00  0.00    -0.017 C 
ATOM      2  C   UNL     1       9.720  -0.989   4.466  0.00  0.00    -0.018 C 
ATOM      3  C   UNL     1      11.116  -1.079   3.461  0.00  0.00    -0.011 C 
ATOM      4  C   UNL     1      11.003  -1.367   4.706  0.00  0.00    -0.035 C 
ATOM      5  C   UNL     1      11.840  -1.800   5.822  0.00  0.00    +0.045 C 
ENDROOT
BRANCH   3   6
ATOM      6  C   UNL     1      10.828  -0.638   2.130  0.00  0.00    -0.042 C 
ATOM      7  C   UNL     1      10.412   0.620   1.883  0.00  0.00    +0.013 C 
BRANCH   6   8
ATOM      8  C   UNL     1      11.032  -1.651   1.017  0.00  0.00    +0.071 C 
BRANCH   8   9
ATOM      9  C   UNL     1      12.479  -1.994   0.790  0.00  0.00    +0.038 C 
ATOM     10  C   UNL     1      13.024  -3.178   0.752  0.00  0.00    -0.073 C 
ATOM     11  C   UNL     1      13.644  -4.208   0.726  0.00  0.00    -0.070 C 
ATOM     12  C   UNL     1      14.372  -5.294   0.747  0.00  0.00    +0.060 C 
BRANCH  12  13
ATOM     13  C   UNL     1      15.591  -5.441  -0.014  0.00  0.00    +0.009 C 
ATOM     14  C   UNL     1      16.407  -6.497   0.133  0.00  0.00    +0.010 C 
BRANCH  14  15
ATOM     15  C   UNL     1      17.637  -6.688  -0.602  0.00  0.00    +0.071 C 
ATOM     16  C   UNL     1      18.416  -7.710  -0.382  0.00  0.00    -0.018 C 
ATOM     17  N   UNL     1      19.135  -8.612  -0.155  0.00  0.00    -0.245 NA
ATOM     18  C   UNL     1      18.882  -9.820  -0.939  0.00  0.00    +0.182 C 
ENDBRANCH  14  15
ENDBRANCH  12  13
ENDBRANCH   8   9
ENDBRANCH   6   8
ENDBRANCH   3   6
BRANCH   1  19
ATOM     19  C   UNL     1       7.226  -1.300   4.089  0.00  0.00    +0.047 C 
BRANCH  19  20
ATOM     20  C   UNL     1       6.387  -2.572   4.342  0.00  0.00    +0.114 C 
BRANCH  20  23
ATOM     21  C   UNL     1       4.094  -3.347   3.893  0.00  0.00    +0.047 C 
ATOM     22  C   UNL     1       4.344  -2.519   2.883  0.00  0.00    +0.098 C 
ATOM     23  N   UNL     1       4.934  -2.341   4.173  0.00  0.00    -0.303 N 
BRANCH  21  26
ATOM     24  C   UNL     1       0.280  -3.474   4.446  0.00  0.00    +0.035 C 
ATOM     25  C   UNL     1       1.676  -2.942   4.335  0.00  0.00    -0.028 C 
ATOM     26  C   UNL     1       2.739  -3.739   4.138  0.00  0.00    +0.020 C 
ENDBRANCH  21  26
ENDBRANCH  20  23
ENDBRANCH  19  20
ENDBRANCH   1  19
TORSDOF 9
