REMARK  Name = 
REMARK  14 active torsions:
REMARK  status: ('A' for Active; 'I' for Inactive)
REMARK    1  A    between atoms: C_2  and  C_3
REMARK    2  A    between atoms: C_2  and  C_4
REMARK    3  A    between atoms: C_6  and  C_7
REMARK    4  A    between atoms: C_8  and  C_9
REMARK    5  A    between atoms: C_10  and  C_11
REMARK    6  A    between atoms: C_10  and  C_15
REMARK    7  A    between atoms: C_12  and  C_13
REMARK    8  A    between atoms: C_13  and  C_14
REMARK    9  A    between atoms: C_17  and  C_18
REMARK   10  A    between atoms: C_17  and  C_20
REMARK   11  A    between atoms: C_18  and  C_19
REMARK   12  A    between atoms: C_20  and  C_21
REMARK   13  A    between atoms: C_22  and  C_23
REMARK   14  A    between atoms: C_25  and  C_26
REMARK                            x       y       z     vdW  Elec       q    Type
REMARK                         _______ _______ _______ _____ _____    ______ ____
ROOT
ATOM      1  C   UNL     1       8.776  -1.253  -1.695  0.00  0.00    +0.008 C 
ATOM      2  C   UNL     1      10.128  -1.198  -1.686  0.00  0.00    -0.018 C 
ENDROOT
BRANCH   2   3
ATOM      3  C   UNL     1      10.839  -2.348  -2.244  0.00  0.00    +0.059 C 
ATOM      4  C   UNL     1      11.997  -2.235  -2.826  0.00  0.00    -0.120 C 
ATOM      5  C   UNL     1      13.170  -2.101  -3.387  0.00  0.00    -0.027 C 
BRANCH   5   6
ATOM      6  C   UNL     1      14.447  -2.442  -2.639  0.00  0.00    +0.036 C 
ATOM      7  C   UNL     1      14.298  -3.530  -1.576  0.00  0.00    +0.009 C 
ENDBRANCH   5   6
BRANCH   5   8
ATOM      8  C   UNL     1      13.347  -1.280  -4.652  0.00  0.00    +0.048 C 
BRANCH   8   9
ATOM      9  C   UNL     1      13.237  -2.147  -5.914  0.00  0.00    +0.030 C 
ATOM     10  C   UNL     1      13.422  -1.318  -7.231  0.00  0.00    +0.017 C 
ATOM     11  C   UNL     1      14.525  -1.772  -8.176  0.00  0.00    +0.012 C 
ATOM     12  C   UNL     1      12.026  -1.770  -7.597  0.00  0.00    -0.019 C 
ATOM     13  C   UNL     1      11.846  -2.467  -6.460  0.00  0.00    -0.039 C 
BRANCH  13  14
ATOM     14  C   UNL     1      10.713  -3.284  -5.955  0.00  0.00    +0.054 C 
ATOM     15  C   UNL     1       9.577  -3.484  -6.559  0.00  0.00    -0.127 C 
ATOM     16  C   UNL     1       8.447  -3.677  -7.171  0.00  0.00    +0.068 C 
ENDBRANCH  13  14
ENDBRANCH   8   9
ENDBRANCH   5   8
ENDBRANCH   2   3
BRANCH   1  18
ATOM     17  C   UNL     1       6.530  -0.296  -1.245  0.00  0.00    +0.008 C 
ATOM     18  C   UNL     1       7.871  -0.226  -1.209  0.00  0.00    +0.001 C 
BRANCH  17  21
ATOM     19  C   UNL     1       3.135   0.837  -0.610  0.00  0.00    +0.054 C 
ATOM     20  C   UNL     1       4.434   0.793  -0.721  0.00  0.00    -0.120 C 
ATOM     21  C   UNL     1       5.731   0.807  -0.766  0.00  0.00    +0.051 C 
BRANCH  19  23
ATOM     22  C   UNL     1       1.040  -0.047   0.238  0.00  0.00    +0.012 C 
ATOM     23  C   UNL     1       2.373  -0.162   0.117  0.00  0.00    -0.050 C 
ATOM     24  C   UNL     1       3.118  -1.321   0.727  0.00  0.00    +0.044 C 
ENDBRANCH  19  23
ENDBRANCH  17  21
ENDBRANCH   1  18
BRANCH   2  25
ATOM     25  C   UNL     1      10.845  -0.038  -1.139  0.00  0.00    +0.004 C 
ATOM     26  C   UNL     1      11.769  -0.136  -0.167  0.00  0.00    -0.026 C 
BRANCH  26  27
ATOM     27  C   UNL     1      12.549   1.012   0.406  0.00  0.00    +0.024 C 
ATOM     28  C   UNL     1      12.267   1.168   1.893  0.00  0.00    +0.008 C 
ENDBRANCH  26  27
ENDBRANCH   2  25
TORSDOF 10
