REMARK  Name = 
REMARK  8 active torsions:
REMARK  status: ('A' for Active; 'I' for Inactive)
REMARK    1  A    between atoms: C_2  and  C_3
REMARK    2  A    between atoms: C_4  and  C_5
REMARK    3  A    between atoms: C_6  and  C_7
REMARK    4  A    between atoms: C_13  and  C_14
REMARK    5  A    between atoms: C_14  and  N_15
REMARK    6  A    between atoms: C_14  and  C_16
REMARK    7  A    between atoms: N_18  and  C_21
REMARK    8  A    between atoms: C_21  and  C_22
REMARK                            x       y       z     vdW  Elec       q    Type
REMARK                         _______ _______ _______ _____ _____    ______ ____
ROOT
ATOM      1  C   UNL     1       7.310   2.141   3.318  0.00  0.00    +0.008 C 
ATOM      2  C   UNL     1       8.644   1.969   3.382  0.00  0.00    -0.017 C 
ATOM      3  C   UNL     1       9.442   2.611   4.439  0.00  0.00    -0.043 C 
ATOM      4  C   UNL     1       9.118   2.883   5.709  0.00  0.00    +0.013 C 
ATOM      5  C   UNL     1      10.807   2.785   3.817  0.00  0.00    +0.062 C 
ATOM      6  C   UNL     1      10.778   1.866   2.630  0.00  0.00    -0.016 C 
ATOM      7  C   UNL     1       9.551   1.350   2.411  0.00  0.00    -0.018 C 
ENDROOT
BRANCH   1   9
ATOM      8  C   UNL     1       6.455   2.456   1.040  0.00  0.00    +0.000 C 
ATOM      9  C   UNL     1       6.387   1.859   2.241  0.00  0.00    +0.001 C 
BRANCH   8  11
ATOM     10  C   UNL     1       5.465   2.903  -1.165  0.00  0.00    -0.001 C 
ATOM     11  C   UNL     1       5.410   2.331   0.047  0.00  0.00    -0.000 C 
BRANCH  10  13
ATOM     12  C   UNL     1       4.408   3.368  -3.327  0.00  0.00    +0.008 C 
ATOM     13  C   UNL     1       4.361   2.844  -2.097  0.00  0.00    -0.008 C 
ENDBRANCH  10  13
ENDBRANCH   8  11
ENDBRANCH   1   9
BRANCH   7  14
ATOM     14  C   UNL     1       9.221   0.242   1.445  0.00  0.00    +0.169 C 
BRANCH  14  15
ATOM     15  C   UNL     1      10.029  -1.079   1.752  0.00  0.00    +0.243 C 
ATOM     16  O   UNL     1      10.715  -1.201   2.773  0.00  0.00    -0.273 OA
ATOM     17  N   UNL     1       9.934  -2.131   0.820  0.00  0.00    -0.243 N 
ATOM     18  C   UNL     1       8.996  -2.230  -0.204  0.00  0.00    +0.335 C 
ATOM     19  O   UNL     1       8.945  -3.127  -1.042  0.00  0.00    -0.279 OA
BRANCH  17  20
ATOM     20  C   UNL     1      10.908  -3.217   0.916  0.00  0.00    +0.113 C 
ATOM     21  C   UNL     1      12.129  -2.944   0.044  0.00  0.00    +0.025 C 
ENDBRANCH  17  20
ENDBRANCH  14  15
BRANCH  14  22
ATOM     22  N   UNL     1       9.536   0.681   0.067  0.00  0.00    -0.316 NA
ATOM     23  H   UNL     1      10.537   0.870   0.013  0.00  0.00    +0.119 HD
ATOM     24  H   UNL     1       9.076   1.578  -0.088  0.00  0.00    +0.119 HD
ENDBRANCH  14  22
ENDBRANCH   7  14
TORSDOF 7
