REMARK  Name = 
REMARK  5 active torsions:
REMARK  status: ('A' for Active; 'I' for Inactive)
REMARK    1  A    between atoms: C_2  and  C_3
REMARK    2  A    between atoms: C_3  and  C_4
REMARK    3  A    between atoms: C_8  and  C_11
REMARK    4  A    between atoms: C_11  and  C_12
REMARK    5  A    between atoms: C_12  and  C_13
REMARK                            x       y       z     vdW  Elec       q    Type
REMARK                         _______ _______ _______ _____ _____    ______ ____
ROOT
ATOM      1  C   UNL     1       4.202  -0.670   1.078  0.00  0.00    +0.048 C 
ATOM      2  C   UNL     1       3.868  -1.946   0.275  0.00  0.00    +0.027 C 
ATOM      3  C   UNL     1       3.174   0.662   1.359  0.00  0.00    +0.019 C 
ATOM      4  C   UNL     1       3.147   0.651  -0.026  0.00  0.00    +0.024 C 
ATOM      5  C   UNL     1       4.660   0.487   0.068  0.00  0.00    -0.030 C 
ATOM      6  C   UNL     1       5.457   1.520   0.490  0.00  0.00    -0.048 C 
ATOM      7  C   UNL     1       4.758   2.475   1.477  0.00  0.00    +0.132 C 
ATOM      8  N   UNL     1       3.619   1.703   2.118  0.00  0.00    -0.342 N 
ATOM      9  H   UNL     1       2.915   2.363   2.448  0.00  0.00    +0.146 HD
ENDROOT
BRANCH   1  11
ATOM     10  C   UNL     1       4.554  -1.918   3.179  0.00  0.00    +0.005 C 
ATOM     11  C   UNL     1       4.983  -0.966   2.331  0.00  0.00    -0.018 C 
ENDBRANCH   1  11
BRANCH   6  12
ATOM     12  C   UNL     1       6.964   1.424   0.506  0.00  0.00    +0.036 C 
BRANCH  12  13
ATOM     13  C   UNL     1       7.504   0.278  -0.373  0.00  0.00    +0.031 C 
BRANCH  13  14
ATOM     14  C   UNL     1       8.988   0.104  -0.256  0.00  0.00    -0.034 C 
ATOM     15  C   UNL     1       9.576  -1.025   0.162  0.00  0.00    +0.004 C 
ENDBRANCH  13  14
ENDBRANCH  12  13
ENDBRANCH   6  12
TORSDOF 4
