REMARK  Name = 
REMARK  6 active torsions:
REMARK  status: ('A' for Active; 'I' for Inactive)
REMARK    1  A    between atoms: C_6  and  C_7
REMARK    2  A    between atoms: N_8  and  N_9
REMARK    3  A    between atoms: N_9  and  C_12
REMARK    4  A    between atoms: C_12  and  C_19
REMARK    5  A    between atoms: C_19  and  C_20
REMARK    6  A    between atoms: C_21  and  C_22
REMARK                            x       y       z     vdW  Elec       q    Type
REMARK                         _______ _______ _______ _____ _____    ______ ____
ROOT
ATOM      1  C   UNL     1      -0.471  -4.278   3.960  0.00  0.00    +0.114 C 
ATOM      2  C   UNL     1       0.781  -4.675   3.171  0.00  0.00    +0.032 C 
ATOM      3  C   UNL     1       1.882  -4.113   2.801  0.00  0.00    -0.064 C 
ATOM      4  C   UNL     1       2.885  -3.577   2.425  0.00  0.00    -0.077 C 
ATOM      5  C   UNL     1       3.954  -2.975   2.003  0.00  0.00    +0.078 C 
ATOM      6  C   UNL     1      -1.015  -5.587   3.378  0.00  0.00    +0.007 C 
ATOM      7  C   UNL     1       0.140  -5.897   2.741  0.00  0.00    +0.013 C 
ENDROOT
BRANCH   1   8
ATOM      8  N   UNL     1      -1.098  -3.017   3.409  0.00  0.00    -0.181 N 
ATOM      9  C   UNL     1      -0.544  -1.764   3.710  0.00  0.00    +0.350 C 
ATOM     10  O   UNL     1      -0.847  -0.662   3.267  0.00  0.00    -0.278 OA
BRANCH   8  12
ATOM     11  C   UNL     1      -2.896  -2.214   2.199  0.00  0.00    +0.111 C 
ATOM     12  N   UNL     1      -2.050  -3.174   2.405  0.00  0.00    -0.188 NA
BRANCH  11  18
ATOM     13  C   UNL     1      -4.215  -0.907   0.525  0.00  0.00    +0.040 C 
ATOM     14  C   UNL     1      -5.347  -0.190   1.219  0.00  0.00    -0.026 C 
ATOM     15  C   UNL     1      -6.263  -0.847   1.946  0.00  0.00    -0.004 C 
ATOM     16  C   UNL     1      -6.219  -2.283   2.080  0.00  0.00    -0.004 C 
ATOM     17  C   UNL     1      -5.139  -2.981   1.699  0.00  0.00    -0.018 C 
ATOM     18  C   UNL     1      -3.928  -2.314   1.092  0.00  0.00    +0.058 C 
ENDBRANCH  11  18
ENDBRANCH   8  12
ENDBRANCH   1   8
BRANCH   1  19
ATOM     19  C   UNL     1      -0.358  -4.271   5.497  0.00  0.00    +0.065 C 
BRANCH  19  20
ATOM     20  C   UNL     1      -1.710  -4.235   6.176  0.00  0.00    -0.021 C 
ATOM     21  C   UNL     1      -2.115  -5.204   7.009  0.00  0.00    +0.038 C 
BRANCH  21  22
ATOM     22  C   UNL     1      -3.390  -5.117   7.752  0.00  0.00    +0.250 C 
ATOM     23  O   UNL     1      -3.734  -6.003   8.525  0.00  0.00    -0.296 OA
ENDBRANCH  21  22
ENDBRANCH  19  20
ENDBRANCH   1  19
TORSDOF 6
