REMARK  Name = 
REMARK  6 active torsions:
REMARK  status: ('A' for Active; 'I' for Inactive)
REMARK    1  A    between atoms: C_1  and  O_2
REMARK    2  A    between atoms: O_2  and  C_3
REMARK    3  A    between atoms: C_4  and  C_5
REMARK    4  A    between atoms: C_10  and  C_11
REMARK    5  A    between atoms: C_11  and  N_12
REMARK    6  A    between atoms: N_12  and  C_13
REMARK                            x       y       z     vdW  Elec       q    Type
REMARK                         _______ _______ _______ _____ _____    ______ ____
ROOT
ATOM      1  C   UNL     1       5.809  -3.831   0.829  0.00  0.00    +0.011 C 
ATOM      2  C   UNL     1       5.079  -3.827   1.956  0.00  0.00    -0.021 C 
ATOM      3  C   UNL     1       3.635  -4.036   2.029  0.00  0.00    +0.008 C 
ATOM      4  C   UNL     1       3.271  -3.894   3.313  0.00  0.00    +0.001 C 
ATOM      5  C   UNL     1       4.445  -3.627   4.114  0.00  0.00    +0.005 C 
ATOM      6  C   UNL     1       5.546  -3.602   3.335  0.00  0.00    -0.026 C 
ENDROOT
BRANCH   1   8
ATOM      7  C   UNL     1       6.008  -3.986  -1.635  0.00  0.00    +0.186 C 
ATOM      8  C   UNL     1       5.282  -4.055  -0.516  0.00  0.00    +0.038 C 
BRANCH   7  10
ATOM      9  C   UNL     1       6.121  -3.529  -3.914  0.00  0.00    +0.276 C 
ATOM     10  O   UNL     1       5.442  -4.218  -2.867  0.00  0.00    -0.503 OA
ENDBRANCH   7  10
ENDBRANCH   1   8
BRANCH   6  11
ATOM     11  C   UNL     1       6.952  -3.509   3.857  0.00  0.00    +0.117 C 
BRANCH  11  12
ATOM     12  N   UNL     1       7.655  -2.317   3.393  0.00  0.00    -0.309 NA
ATOM     13  H   UNL     1       7.089  -1.507   3.653  0.00  0.00    +0.123 HD
BRANCH  12  14
ATOM     14  C   UNL     1       9.021  -2.118   3.958  0.00  0.00    +0.061 C 
ATOM     15  C   UNL     1       9.524  -0.801   3.313  0.00  0.00    +0.046 C 
ATOM     16  C   UNL     1       9.997  -3.287   3.707  0.00  0.00    +0.046 C 
ATOM     17  C   UNL     1      11.245  -3.232   4.549  0.00  0.00    -0.025 C 
ATOM     18  C   UNL     1      12.068  -2.191   4.707  0.00  0.00    -0.004 C 
ATOM     19  C   UNL     1      12.001  -0.924   4.034  0.00  0.00    -0.004 C 
ATOM     20  C   UNL     1      10.944  -0.338   3.462  0.00  0.00    -0.025 C 
ENDBRANCH  12  14
ENDBRANCH  11  12
ENDBRANCH   6  11
TORSDOF 5
