REMARK  Name = 
REMARK  3 active torsions:
REMARK  status: ('A' for Active; 'I' for Inactive)
REMARK    1  A    between atoms: C_1  and  N_2
REMARK    2  A    between atoms: N_2  and  C_3
REMARK    3  A    between atoms: C_4  and  C_5
REMARK                            x       y       z     vdW  Elec       q    Type
REMARK                         _______ _______ _______ _____ _____    ______ ____
ROOT
ATOM      1  C   UNL     1       3.192   1.167   0.285  0.00  0.00    +0.070 C 
ATOM      2  C   UNL     1       4.529   1.194   0.290  0.00  0.00    +0.057 C 
ENDROOT
BRANCH   1   4
ATOM      3  C   UNL     1       0.971   0.019   0.077  0.00  0.00    +0.125 C 
ATOM      4  N   UNL     1       2.415   0.057   0.084  0.00  0.00    -0.353 N 
ATOM      5  H   UNL     1       2.897  -0.825  -0.075  0.00  0.00    +0.145 HD
ENDBRANCH   1   4
BRANCH   2   6
ATOM      6  C   UNL     1       5.255   2.458   0.518  0.00  0.00    +0.252 C 
ATOM      7  O   UNL     1       6.478   2.497   0.525  0.00  0.00    -0.296 OA
ENDBRANCH   2   6
TORSDOF 2
