REMARK  Name = 
REMARK  6 active torsions:
REMARK  status: ('A' for Active; 'I' for Inactive)
REMARK    1  A    between atoms: C_1  and  C_2
REMARK    2  A    between atoms: C_2  and  O_3
REMARK    3  A    between atoms: O_3  and  C_4
REMARK    4  A    between atoms: C_4  and  C_5
REMARK    5  A    between atoms: C_5  and  C_6
REMARK    6  A    between atoms: C_6  and  C_7
REMARK                            x       y       z     vdW  Elec       q    Type
REMARK                         _______ _______ _______ _____ _____    ______ ____
ROOT
ATOM      1  C   UNL     1       4.926  -2.142   1.783  0.00  0.00    +0.093 C 
ENDROOT
BRANCH   1   2
ATOM      2  C   UNL     1       6.431  -2.211   1.964  0.00  0.00    +0.175 C 
ATOM      3  C   UNL     1       6.888  -3.285   2.936  0.00  0.00    +0.074 C 
ATOM      4  O   UNL     1       7.042  -0.940   2.236  0.00  0.00    -0.323 OA
ATOM      5  C   UNL     1       7.987  -1.184   1.187  0.00  0.00    +0.329 C 
ATOM      6  O   UNL     1       7.160  -2.260   0.726  0.00  0.00    -0.323 OA
ENDBRANCH   1   2
BRANCH   1   7
ATOM      7  C   UNL     1       4.475  -1.060   0.815  0.00  0.00    +0.165 C 
BRANCH   7   8
ATOM      8  O   UNL     1       3.047  -1.122   0.726  0.00  0.00    -0.380 OA
BRANCH   8  10
ATOM      9  C   UNL     1       1.015  -0.275  -0.197  0.00  0.00    +0.034 C 
ATOM     10  C   UNL     1       2.525  -0.142  -0.167  0.00  0.00    +0.156 C 
ENDBRANCH   8  10
ENDBRANCH   7   8
ENDBRANCH   1   7
TORSDOF 4
