REMARK  Name = 
REMARK  4 active torsions:
REMARK  status: ('A' for Active; 'I' for Inactive)
REMARK    1  A    between atoms: C_4  and  C_11
REMARK    2  A    between atoms: C_5  and  C_7
REMARK    3  A    between atoms: C_7  and  N_8
REMARK    4  A    between atoms: N_8  and  C_9
REMARK                            x       y       z     vdW  Elec       q    Type
REMARK                         _______ _______ _______ _____ _____    ______ ____
ROOT
ATOM      1  C   UNL     1       0.805   1.168   0.091  0.00  0.00    -0.004 C 
ATOM      2  C   UNL     1       1.422  -0.021   0.054  0.00  0.00    -0.026 C 
ATOM      3  C   UNL     1       0.658  -1.294  -0.176  0.00  0.00    +0.037 C 
ATOM      4  C   UNL     1      -0.850  -1.193   0.174  0.00  0.00    +0.051 C 
ATOM      5  C   UNL     1      -1.426   0.197  -0.092  0.00  0.00    -0.047 C 
ATOM      6  C   UNL     1      -0.619   1.275  -0.116  0.00  0.00    +0.001 C 
ENDROOT
BRANCH   4   7
ATOM      7  C   UNL     1      -1.065  -1.584   1.643  0.00  0.00    +0.221 C 
ATOM      8  F   UNL     1      -2.395  -1.576   1.933  0.00  0.00    -0.248 F 
ENDBRANCH   4   7
BRANCH   5   9
ATOM      9  C   UNL     1      -2.924   0.305  -0.244  0.00  0.00    +0.132 C 
BRANCH   9  10
ATOM     10  N   UNL     1      -3.242   0.860  -1.546  0.00  0.00    -0.346 N 
ATOM     11  H   UNL     1      -2.469   1.185  -2.117  0.00  0.00    +0.146 HD
BRANCH  10  12
ATOM     12  C   UNL     1      -4.501   1.129  -2.005  0.00  0.00    +0.060 C 
ATOM     13  C   UNL     1      -4.814   1.677  -3.181  0.00  0.00    +0.024 C 
ENDBRANCH  10  12
ENDBRANCH   9  10
ENDBRANCH   5   9
TORSDOF 4
