REMARK  Name = 
REMARK  14 active torsions:
REMARK  status: ('A' for Active; 'I' for Inactive)
REMARK    1  A    between atoms: C_2  and  C_3
REMARK    2  A    between atoms: C_2  and  N_4
REMARK    3  A    between atoms: N_4  and  C_5
REMARK    4  A    between atoms: C_5  and  C_6
REMARK    5  A    between atoms: C_6  and  C_7
REMARK    6  A    between atoms: C_6  and  C_8
REMARK    7  A    between atoms: C_8  and  N_9
REMARK    8  A    between atoms: C_10  and  C_11
REMARK    9  A    between atoms: C_12  and  C_13
REMARK   10  A    between atoms: C_14  and  C_15
REMARK   11  A    between atoms: C_18  and  C_19
REMARK   12  A    between atoms: C_20  and  C_21
REMARK   13  A    between atoms: C_22  and  C_23
REMARK   14  A    between atoms: C_24  and  C_26
REMARK                            x       y       z     vdW  Elec       q    Type
REMARK                         _______ _______ _______ _____ _____    ______ ____
ROOT
ATOM      1  C   UNL     1      11.152   6.284   3.240  0.00  0.00    -0.027 C 
ATOM      2  C   UNL     1      12.117   6.635   2.375  0.00  0.00    +0.029 C 
ATOM      3  C   UNL     1      12.500   6.392   3.746  0.00  0.00    +0.077 C 
ENDROOT
BRANCH   2   4
ATOM      4  C   UNL     1      12.406   5.882   1.137  0.00  0.00    +0.239 C 
ATOM      5  O   UNL     1      12.171   4.696   0.955  0.00  0.00    -0.271 OA
ATOM      6  N   UNL     1      13.030   6.631   0.186  0.00  0.00    -0.326 N 
ATOM      7  H   UNL     1      13.345   7.576   0.355  0.00  0.00    +0.145 HD
ATOM      8  H   UNL     1      13.307   6.165  -0.665  0.00  0.00    +0.145 HD
ENDBRANCH   2   4
BRANCH   1  10
ATOM      9  C   UNL     1       9.022   5.109   2.922  0.00  0.00    +0.020 C 
ATOM     10  C   UNL     1      10.349   5.099   3.092  0.00  0.00    +0.006 C 
BRANCH   9  12
ATOM     11  N   UNL     1       7.105   3.780   2.270  0.00  0.00    -0.291 NA
ATOM     12  C   UNL     1       8.379   3.863   2.447  0.00  0.00    +0.105 C 
BRANCH  11  13
ATOM     13  C   UNL     1       6.686   2.509   1.661  0.00  0.00    +0.146 C 
BRANCH  13  14
ATOM     14  C   UNL     1       5.155   2.463   1.520  0.00  0.00    +0.024 C 
ATOM     15  C   UNL     1       4.655   3.589   0.606  0.00  0.00    +0.011 C 
BRANCH  14  16
ATOM     16  C   UNL     1       4.485   2.477   2.907  0.00  0.00    +0.106 C 
BRANCH  16  17
ATOM     17  N   UNL     1       3.032   2.351   2.835  0.00  0.00    -0.347 N 
ATOM     18  H   UNL     1       2.545   3.244   2.837  0.00  0.00    +0.146 HD
BRANCH  17  20
ATOM     19  C   UNL     1       2.725   0.027   2.289  0.00  0.00    +0.028 C 
ATOM     20  C   UNL     1       2.302   1.299   2.316  0.00  0.00    -0.006 C 
ATOM     21  C   UNL     1       0.944   1.651   1.756  0.00  0.00    +0.059 C 
ENDBRANCH  17  20
ENDBRANCH  16  17
ENDBRANCH  14  16
ENDBRANCH  13  14
ENDBRANCH  11  13
ENDBRANCH   9  12
ENDBRANCH   1  10
BRANCH   3  22
ATOM     22  C   UNL     1      12.905   7.561   4.539  0.00  0.00    -0.014 C 
ATOM     23  C   UNL     1      14.158   8.047   4.614  0.00  0.00    -0.003 C 
BRANCH  23  24
ATOM     24  C   UNL     1      14.560   9.160   5.454  0.00  0.00    -0.000 C 
ATOM     25  C   UNL     1      15.827   9.605   5.512  0.00  0.00    +0.002 C 
BRANCH  25  26
ATOM     26  C   UNL     1      16.264  10.685   6.376  0.00  0.00    +0.033 C 
ATOM     27  C   UNL     1      17.532  11.126   6.433  0.00  0.00    +0.098 C 
ATOM     28  F   UNL     1      18.461  10.546   5.636  0.00  0.00    -0.210 F 
ATOM     29  C   UNL     1      17.999  12.227   7.332  0.00  0.00    +0.077 C 
ENDBRANCH  25  26
ENDBRANCH  23  24
ENDBRANCH   3  22
TORSDOF 11
