REMARK  Name = 
REMARK  1 active torsions:
REMARK  status: ('A' for Active; 'I' for Inactive)
REMARK    1  A    between atoms: C_7  and  C_8
REMARK                            x       y       z     vdW  Elec       q    Type
REMARK                         _______ _______ _______ _____ _____    ______ ____
ROOT
ATOM      1  C   UNL     1       2.218  -0.339   0.794  0.00  0.00    +0.142 C 
ATOM      2  C   UNL     1       3.690  -0.803   0.471  0.00  0.00    -0.032 C 
ATOM      3  C   UNL     1       3.144  -0.746  -0.804  0.00  0.00    +0.076 C 
ATOM      4  N   UNL     1       2.441   0.358  -0.502  0.00  0.00    -0.309 N 
ATOM      5  C   UNL     1       3.191   1.564  -0.363  0.00  0.00    +0.071 C 
ATOM      6  C   UNL     1       4.343   1.591   0.344  0.00  0.00    -0.004 C 
ATOM      7  C   UNL     1       4.804   0.261   0.933  0.00  0.00    +0.038 C 
ATOM      8  C   UNL     1       6.171  -0.147   0.402  0.00  0.00    +0.016 C 
ENDROOT
TORSDOF 0
