REMARK  Name = 
REMARK  5 active torsions:
REMARK  status: ('A' for Active; 'I' for Inactive)
REMARK    1  A    between atoms: C_1  and  C_2
REMARK    2  A    between atoms: C_3  and  C_4
REMARK    3  A    between atoms: C_4  and  C_19
REMARK    4  A    between atoms: C_20  and  C_21
REMARK    5  A    between atoms: C_21  and  C_22
REMARK                            x       y       z     vdW  Elec       q    Type
REMARK                         _______ _______ _______ _____ _____    ______ ____
ROOT
ATOM      1  C   UNL     1       4.706  -0.792  -1.178  0.00  0.00    +0.044 C 
ATOM      2  C   UNL     1       5.017  -0.993   0.378  0.00  0.00    +0.101 C 
ATOM      3  N   UNL     1       4.529  -2.214   1.063  0.00  0.00    -0.311 NA
ATOM      4  C   UNL     1       3.816  -1.908   2.308  0.00  0.00    +0.108 C 
ATOM      5  C   UNL     1       2.511  -1.208   2.045  0.00  0.00    -0.016 C 
ATOM      6  C   UNL     1       2.266   0.093   2.272  0.00  0.00    -0.025 C 
ATOM      7  C   UNL     1       1.009   0.798   1.820  0.00  0.00    +0.061 C 
ATOM      8  C   UNL     1       1.291   2.031   0.972  0.00  0.00    -0.051 C 
ATOM      9  C   UNL     1       0.840   3.250   1.310  0.00  0.00    +0.012 C 
ATOM     10  C   UNL     1       2.011   1.823  -0.274  0.00  0.00    +0.004 C 
ATOM     11  C   UNL     1       3.294   2.171  -0.468  0.00  0.00    +0.008 C 
ATOM     12  C   UNL     1       4.075   1.723  -1.617  0.00  0.00    -0.028 C 
ATOM     13  C   UNL     1       3.830   2.205  -2.850  0.00  0.00    +0.017 C 
ATOM     14  C   UNL     1       5.131   0.706  -1.456  0.00  0.00    -0.033 C 
ATOM     15  C   UNL     1       6.412   1.135  -1.419  0.00  0.00    +0.014 C 
ATOM     16  H   UNL     1       5.326  -2.811   1.275  0.00  0.00    +0.122 HD
ENDROOT
BRANCH   1  19
ATOM     17  C   UNL     1       0.948  -2.099  -1.513  0.00  0.00    +0.035 C 
ATOM     18  C   UNL     1       2.389  -1.985  -1.148  0.00  0.00    -0.033 C 
ATOM     19  C   UNL     1       3.238  -1.048  -1.602  0.00  0.00    -0.015 C 
ENDBRANCH   1  19
BRANCH   1  20
ATOM     20  C   UNL     1       5.534  -1.805  -1.988  0.00  0.00    -0.014 C 
ATOM     21  C   UNL     1       6.075  -1.648  -3.209  0.00  0.00    -0.030 C 
BRANCH  21  22
ATOM     22  C   UNL     1       6.755  -2.764  -3.947  0.00  0.00    +0.023 C 
ATOM     23  C   UNL     1       6.042  -3.085  -5.252  0.00  0.00    +0.008 C 
ENDBRANCH  21  22
ENDBRANCH   1  20
TORSDOF 3
