REMARK  Name = 
REMARK  4 active torsions:
REMARK  status: ('A' for Active; 'I' for Inactive)
REMARK    1  A    between atoms: C_1  and  C_2
REMARK    2  A    between atoms: C_2  and  O_3
REMARK    3  A    between atoms: O_3  and  C_4
REMARK    4  A    between atoms: C_5  and  C_6
REMARK                            x       y       z     vdW  Elec       q    Type
REMARK                         _______ _______ _______ _____ _____    ______ ____
ROOT
ATOM      1  O   UNL     1       3.176   1.065   0.832  0.00  0.00    -0.298 OA
ENDROOT
BRANCH   1   2
ATOM      2  C   UNL     1       4.510   1.070   0.835  0.00  0.00    +0.054 C 
ATOM      3  C   UNL     1       5.814   1.071   0.833  0.00  0.00    -0.076 C 
ATOM      4  C   UNL     1       7.334   1.073   0.832  0.00  0.00    +0.108 C 
ENDBRANCH   1   2
BRANCH   1   6
ATOM      5  C   UNL     1       1.154   0.045   0.012  0.00  0.00    +0.035 C 
ATOM      6  C   UNL     1       2.676   0.022  -0.006  0.00  0.00    +0.176 C 
ENDBRANCH   1   6
TORSDOF 2
