REMARK  Name = 
REMARK  10 active torsions:
REMARK  status: ('A' for Active; 'I' for Inactive)
REMARK    1  A    between atoms: C_11  and  C_12
REMARK    2  A    between atoms: C_14  and  C_15
REMARK    3  A    between atoms: C_15  and  C_16
REMARK    4  A    between atoms: C_16  and  C_17
REMARK    5  A    between atoms: C_17  and  N_18
REMARK    6  A    between atoms: C_17  and  C_22
REMARK    7  A    between atoms: C_17  and  C_23
REMARK    8  A    between atoms: N_18  and  C_19
REMARK    9  A    between atoms: C_19  and  C_20
REMARK   10  A    between atoms: C_20  and  C_21
REMARK                            x       y       z     vdW  Elec       q    Type
REMARK                         _______ _______ _______ _____ _____    ______ ____
ROOT
ATOM      1  C   UNL     1       4.037   1.532   3.155  0.00  0.00    +0.077 C 
ATOM      2  C   UNL     1       5.132   2.501   3.632  0.00  0.00    -0.021 C 
ATOM      3  C   UNL     1       5.096   3.821   3.959  0.00  0.00    -0.004 C 
ATOM      4  C   UNL     1       4.247   4.293   5.066  0.00  0.00    -0.004 C 
ATOM      5  C   UNL     1       3.249   5.165   4.831  0.00  0.00    -0.025 C 
ATOM      6  C   UNL     1       1.850   4.577   4.885  0.00  0.00    +0.046 C 
ATOM      7  C   UNL     1       1.487   4.352   3.409  0.00  0.00    +0.108 C 
ATOM      8  N   UNL     1       1.007   3.071   3.051  0.00  0.00    -0.313 N 
ATOM      9  C   UNL     1       1.242   2.413   1.870  0.00  0.00    +0.237 C 
ATOM     10  O   UNL     1       0.553   1.400   1.700  0.00  0.00    -0.273 OA
ATOM     11  C   UNL     1       2.356   2.791   0.845  0.00  0.00    +0.187 C 
ATOM     12  C   UNL     1       3.194   4.057   0.770  0.00  0.00    +0.042 C 
ATOM     13  N   UNL     1       3.268   1.647   0.691  0.00  0.00    -0.280 NA
ATOM     14  C   UNL     1       3.901   1.041   1.640  0.00  0.00    +0.018 C 
ATOM     15  H   UNL     1       0.255   2.642   3.587  0.00  0.00    +0.149 HD
ENDROOT
BRANCH  14  16
ATOM     16  C   UNL     1       4.261  -0.412   1.257  0.00  0.00    +0.053 C 
BRANCH  16  17
ATOM     17  C   UNL     1       5.704  -0.815   0.963  0.00  0.00    +0.032 C 
BRANCH  17  18
ATOM     18  C   UNL     1       5.880  -2.289   0.386  0.00  0.00    +0.042 C 
ATOM     19  C   UNL     1       7.387  -2.637   0.340  0.00  0.00    +0.033 C 
BRANCH  18  20
ATOM     20  C   UNL     1       5.271  -3.282   1.391  0.00  0.00    +0.045 C 
ATOM     21  C   UNL     1       4.423  -4.272   1.191  0.00  0.00    -0.130 C 
ATOM     22  C   UNL     1       3.591  -5.234   1.003  0.00  0.00    +0.068 C 
ENDBRANCH  18  20
BRANCH  18  23
ATOM     23  N   UNL     1       5.301  -2.527  -0.954  0.00  0.00    -0.307 NA
ATOM     24  H   UNL     1       4.286  -2.474  -0.909  0.00  0.00    +0.123 HD
BRANCH  23  25
ATOM     25  C   UNL     1       5.802  -1.685  -2.037  0.00  0.00    +0.081 C 
BRANCH  25  26
ATOM     26  C   UNL     1       5.234  -2.098  -3.398  0.00  0.00    +0.012 C 
ATOM     27  C   UNL     1       5.752  -1.163  -4.488  0.00  0.00    +0.005 C 
ENDBRANCH  25  26
ENDBRANCH  23  25
ENDBRANCH  18  23
ENDBRANCH  17  18
ENDBRANCH  16  17
ENDBRANCH  14  16
TORSDOF 7
