REMARK  Name = 
REMARK  1 active torsions:
REMARK  status: ('A' for Active; 'I' for Inactive)
REMARK    1  A    between atoms: C_5  and  C_6
REMARK                            x       y       z     vdW  Elec       q    Type
REMARK                         _______ _______ _______ _____ _____    ______ ____
ROOT
ATOM      1  C   UNL     1       1.165   0.285   0.012  0.00  0.00    -0.020 C 
ATOM      2  C   UNL     1       0.720  -0.981   0.040  0.00  0.00    -0.004 C 
ATOM      3  C   UNL     1      -0.721  -0.980   0.041  0.00  0.00    -0.004 C 
ATOM      4  C   UNL     1      -1.167   0.284   0.014  0.00  0.00    -0.020 C 
ATOM      5  C   UNL     1      -0.001   1.239  -0.017  0.00  0.00    +0.031 C 
ATOM      6  C   UNL     1      -0.003   2.100  -1.273  0.00  0.00    +0.016 C 
ENDROOT
TORSDOF 0
