REMARK  Name = 
REMARK  24 active torsions:
REMARK  status: ('A' for Active; 'I' for Inactive)
REMARK    1  A    between atoms: C_2  and  C_3
REMARK    2  A    between atoms: C_3  and  C_4
REMARK    3  A    between atoms: C_4  and  C_5
REMARK    4  A    between atoms: C_4  and  N_7
REMARK    5  A    between atoms: N_7  and  C_8
REMARK    6  A    between atoms: N_7  and  N_10
REMARK    7  A    between atoms: N_10  and  C_11
REMARK    8  A    between atoms: C_12  and  C_15
REMARK    9  A    between atoms: N_13  and  C_14
REMARK   10  A    between atoms: C_15  and  C_16
REMARK   11  A    between atoms: C_17  and  C_18
REMARK   12  A    between atoms: C_18  and  C_19
REMARK   13  A    between atoms: N_20  and  C_21
REMARK   14  A    between atoms: C_22  and  C_23
REMARK   15  A    between atoms: C_23  and  N_24
REMARK   16  A    between atoms: N_24  and  C_25
REMARK   17  A    between atoms: C_25  and  N_26
REMARK   18  A    between atoms: N_26  and  C_27
REMARK   19  A    between atoms: C_28  and  C_29
REMARK   20  A    between atoms: C_29  and  C_30
REMARK   21  A    between atoms: C_30  and  C_31
REMARK   22  A    between atoms: C_31  and  C_32
REMARK   23  A    between atoms: C_32  and  N_33
REMARK   24  A    between atoms: N_33  and  C_34
REMARK                            x       y       z     vdW  Elec       q    Type
REMARK                         _______ _______ _______ _____ _____    ______ ____
ROOT
ATOM      1  C   UNL     1      10.525   2.617  -0.647  0.00  0.00    +0.074 C 
ENDROOT
BRANCH   1   2
ATOM      2  C   UNL     1       9.772   3.918  -0.946  0.00  0.00    +0.087 C 
ATOM      3  N   UNL     1      10.423   5.019  -1.162  0.00  0.00    -0.267 NA
BRANCH   3   4
ATOM      4  C   UNL     1       9.682   6.143  -1.448  0.00  0.00    +0.107 C 
ATOM      5  C   UNL     1      10.269   7.311  -1.756  0.00  0.00    +0.008 C 
BRANCH   5   6
ATOM      6  C   UNL     1       9.551   8.602  -2.031  0.00  0.00    +0.111 C 
BRANCH   6   7
ATOM      7  N   UNL     1       9.910   9.128  -3.346  0.00  0.00    -0.298 NA
ATOM      8  H   UNL     1       9.628   8.461  -4.062  0.00  0.00    +0.124 HD
BRANCH   7   9
ATOM      9  C   UNL     1       9.212  10.374  -3.634  0.00  0.00    +0.186 C 
BRANCH   9  10
ATOM     10  N   UNL     1       9.456  10.938  -4.938  0.00  0.00    -0.337 N 
ATOM     11  H   UNL     1      10.423  10.893  -5.241  0.00  0.00    +0.147 HD
BRANCH  10  12
ATOM     12  C   UNL     1       8.617  11.741  -5.664  0.00  0.00    +0.064 C 
ATOM     13  C   UNL     1       8.888  12.295  -6.848  0.00  0.00    -0.012 C 
BRANCH  13  14
ATOM     14  C   UNL     1       7.905  13.130  -7.628  0.00  0.00    +0.028 C 
BRANCH  14  15
ATOM     15  C   UNL     1       7.591  12.492  -8.984  0.00  0.00    +0.005 C 
BRANCH  15  16
ATOM     16  C   UNL     1       6.588  13.332  -9.781  0.00  0.00    +0.015 C 
BRANCH  16  17
ATOM     17  C   UNL     1       6.281  12.676 -11.128  0.00  0.00    +0.080 C 
BRANCH  17  18
ATOM     18  N   UNL     1       5.324  13.490 -11.876  0.00  0.00    -0.319 NA
ATOM     19  C   UNL     1       5.028  12.875 -13.164  0.00  0.00    +0.101 C 
ATOM     20  H   UNL     1       5.712  14.420 -12.030  0.00  0.00    +0.122 HD
ENDBRANCH  17  18
ENDBRANCH  16  17
ENDBRANCH  15  16
ENDBRANCH  14  15
ENDBRANCH  13  14
ENDBRANCH  10  12
ENDBRANCH   9  10
ENDBRANCH   7   9
ENDBRANCH   6   7
ENDBRANCH   5   6
ENDBRANCH   3   4
ENDBRANCH   1   2
BRANCH   1  22
ATOM     21  C   UNL     1       9.936   0.179  -0.121  0.00  0.00    -0.025 C 
ATOM     22  C   UNL     1       9.596   1.464  -0.386  0.00  0.00    -0.025 C 
BRANCH  21  23
ATOM     23  C   UNL     1       8.823  -0.827   0.070  0.00  0.00    +0.081 C 
BRANCH  23  25
ATOM     24  C   UNL     1       8.979  -2.420   1.933  0.00  0.00    +0.125 C 
ATOM     25  C   UNL     1       9.066  -2.178   0.618  0.00  0.00    +0.053 C 
ATOM     26  N   UNL     1      10.040  -2.940   1.235  0.00  0.00    -0.290 N 
ATOM     27  C   UNL     1      10.051  -4.384   0.971  0.00  0.00    +0.136 C 
BRANCH  24  28
ATOM     28  N   UNL     1       8.690  -1.508   2.932  0.00  0.00    -0.250 N 
ATOM     29  H   UNL     1       7.666  -1.455   3.021  0.00  0.00    +0.171 HD
BRANCH  28  30
ATOM     30  N   UNL     1       9.301  -0.269   3.197  0.00  0.00    -0.250 N 
BRANCH  30  31
ATOM     31  C   UNL     1       8.591   0.929   3.306  0.00  0.00    +0.084 C 
ATOM     32  C   UNL     1       7.315   1.236   3.048  0.00  0.00    +0.026 C 
ENDBRANCH  30  31
BRANCH  30  33
ATOM     33  C   UNL     1      10.750  -0.378   3.620  0.00  0.00    +0.160 C 
BRANCH  33  34
ATOM     34  C   UNL     1      10.807  -0.706   5.105  0.00  0.00    +0.247 C 
ATOM     35  O   UNL     1      11.274  -1.744   5.573  0.00  0.00    -0.299 OA
ENDBRANCH  33  34
BRANCH  33  36
ATOM     36  C   UNL     1      11.559   0.913   3.344  0.00  0.00    +0.058 C 
BRANCH  36  38
ATOM     37  C   UNL     1      13.846  -0.176   3.535  0.00  0.00    +0.004 C 
ATOM     38  C   UNL     1      13.050   0.895   3.570  0.00  0.00    -0.032 C 
ENDBRANCH  36  38
ENDBRANCH  33  36
ENDBRANCH  30  33
ENDBRANCH  28  30
ENDBRANCH  24  28
ENDBRANCH  23  25
ENDBRANCH  21  23
ENDBRANCH   1  22
TORSDOF 22
