REMARK  Name = 
REMARK  17 active torsions:
REMARK  status: ('A' for Active; 'I' for Inactive)
REMARK    1  A    between atoms: C_1  and  C_2
REMARK    2  A    between atoms: C_2  and  C_3
REMARK    3  A    between atoms: C_3  and  C_4
REMARK    4  A    between atoms: C_4  and  C_5
REMARK    5  A    between atoms: C_5  and  C_6
REMARK    6  A    between atoms: C_9  and  C_10
REMARK    7  A    between atoms: N_11  and  C_12
REMARK    8  A    between atoms: C_12  and  C_13
REMARK    9  A    between atoms: C_13  and  C_15
REMARK   10  A    between atoms: C_16  and  N_17
REMARK   11  A    between atoms: C_18  and  C_19
REMARK   12  A    between atoms: C_19  and  C_20
REMARK   13  A    between atoms: C_19  and  C_21
REMARK   14  A    between atoms: C_21  and  C_22
REMARK   15  A    between atoms: C_22  and  C_23
REMARK   16  A    between atoms: C_24  and  C_25
REMARK   17  A    between atoms: C_27  and  C_28
REMARK                            x       y       z     vdW  Elec       q    Type
REMARK                         _______ _______ _______ _____ _____    ______ ____
ROOT
ATOM      1  C   UNL     1       7.000   0.911   0.561  0.00  0.00    -0.036 C 
ATOM      2  C   UNL     1       6.687   2.220   0.496  0.00  0.00    +0.014 C 
ENDROOT
BRANCH   1   3
ATOM      3  C   UNL     1       7.130   0.297   1.883  0.00  0.00    +0.024 C 
ATOM      4  C   UNL     1       7.560  -0.947   2.123  0.00  0.00    +0.110 C 
BRANCH   4   5
ATOM      5  N   UNL     1       7.601  -1.507   3.372  0.00  0.00    -0.267 NA
ATOM      6  C   UNL     1       7.386  -2.784   3.370  0.00  0.00    +0.086 C 
BRANCH   6   7
ATOM      7  C   UNL     1       7.392  -3.602   4.638  0.00  0.00    +0.027 C 
ATOM      8  C   UNL     1       8.787  -3.564   5.252  0.00  0.00    +0.013 C 
BRANCH   7   9
ATOM      9  C   UNL     1       6.316  -3.119   5.616  0.00  0.00    +0.013 C 
BRANCH   9  10
ATOM     10  C   UNL     1       4.907  -3.213   5.019  0.00  0.00    +0.027 C 
BRANCH  10  11
ATOM     11  C   UNL     1       3.865  -2.794   6.012  0.00  0.00    -0.031 C 
ATOM     12  C   UNL     1       2.862  -3.586   6.420  0.00  0.00    -0.027 C 
BRANCH  12  13
ATOM     13  C   UNL     1       1.831  -3.222   7.395  0.00  0.00    +0.015 C 
ATOM     14  C   UNL     1       2.242  -2.889   8.809  0.00  0.00    +0.011 C 
ATOM     15  C   UNL     1       1.491  -4.162   8.531  0.00  0.00    -0.007 C 
ATOM     16  C   UNL     1       2.166  -5.479   8.725  0.00  0.00    +0.008 C 
ENDBRANCH  12  13
ENDBRANCH  10  11
ENDBRANCH   9  10
ENDBRANCH   7   9
ENDBRANCH   6   7
ENDBRANCH   4   5
ENDBRANCH   1   3
BRANCH   1  17
ATOM     17  C   UNL     1       7.332   0.124  -0.700  0.00  0.00    +0.141 C 
BRANCH  17  23
ATOM     18  C   UNL     1       5.965  -2.062  -0.835  0.00  0.00    +0.096 C 
ATOM     19  C   UNL     1       4.491  -2.174  -1.306  0.00  0.00    +0.165 C 
ATOM     20  N   UNL     1       4.317  -1.136  -2.363  0.00  0.00    -0.272 NA
ATOM     21  C   UNL     1       5.321  -0.317  -2.166  0.00  0.00    +0.090 C 
ATOM     22  C   UNL     1       5.494   0.884  -3.042  0.00  0.00    +0.082 C 
ATOM     23  N   UNL     1       6.221  -0.675  -1.186  0.00  0.00    -0.310 N 
BRANCH  18  24
ATOM     24  C   UNL     1       6.828  -3.056  -1.650  0.00  0.00    +0.024 C 
BRANCH  24  25
ATOM     25  C   UNL     1       8.300  -3.102  -1.235  0.00  0.00    +0.002 C 
BRANCH  25  26
ATOM     26  C   UNL     1       9.118  -4.124  -2.026  0.00  0.00    -0.000 C 
BRANCH  26  28
ATOM     27  C   UNL     1      11.461  -5.031  -2.362  0.00  0.00    +0.004 C 
ATOM     28  C   UNL     1      10.584  -4.066  -1.584  0.00  0.00    -0.003 C 
ENDBRANCH  26  28
ENDBRANCH  25  26
ENDBRANCH  24  25
ENDBRANCH  18  24
ENDBRANCH  17  23
ENDBRANCH   1  17
TORSDOF 13
