REMARK  Name = 
REMARK  8 active torsions:
REMARK  status: ('A' for Active; 'I' for Inactive)
REMARK    1  A    between atoms: C_1  and  C_2
REMARK    2  A    between atoms: C_2  and  C_3
REMARK    3  A    between atoms: C_2  and  C_6
REMARK    4  A    between atoms: C_4  and  C_5
REMARK    5  A    between atoms: C_7  and  C_8
REMARK    6  A    between atoms: N_9  and  N_10
REMARK    7  A    between atoms: N_11  and  C_12
REMARK    8  A    between atoms: C_12  and  C_13
REMARK                            x       y       z     vdW  Elec       q    Type
REMARK                         _______ _______ _______ _____ _____    ______ ____
ROOT
ATOM      1  C   UNL     1       3.051   1.093   1.021  0.00  0.00    -0.018 C 
ATOM      2  C   UNL     1       4.366   1.274   1.212  0.00  0.00    +0.018 C 
ENDROOT
BRANCH   1   4
ATOM      3  C   UNL     1       1.587  -0.946   0.821  0.00  0.00    +0.016 C 
ATOM      4  C   UNL     1       2.489   0.045   0.074  0.00  0.00    +0.031 C 
BRANCH   4   5
ATOM      5  C   UNL     1       1.730   0.686  -1.069  0.00  0.00    -0.024 C 
ATOM      6  C   UNL     1       2.082   0.592  -2.362  0.00  0.00    -0.034 C 
ATOM      7  C   UNL     1       1.310   1.211  -3.486  0.00  0.00    +0.035 C 
ENDBRANCH   4   5
ENDBRANCH   1   4
BRANCH   2   8
ATOM      8  C   UNL     1       4.913   2.310   2.126  0.00  0.00    +0.136 C 
ATOM      9  N   UNL     1       6.191   2.450   2.290  0.00  0.00    -0.138 NA
BRANCH   9  10
ATOM     10  N   UNL     1       6.491   3.479   3.172  0.00  0.00    -0.048 NA
ATOM     11  N   UNL     1       7.732   3.557   3.280  0.00  0.00    -0.160 NA
BRANCH  11  12
ATOM     12  C   UNL     1       8.145   4.623   4.198  0.00  0.00    +0.238 C 
BRANCH  12  13
ATOM     13  C   UNL     1       9.651   4.602   4.267  0.00  0.00    +0.248 C 
ATOM     14  O   UNL     1      10.284   4.992   5.242  0.00  0.00    -0.299 OA
ENDBRANCH  12  13
ENDBRANCH  11  12
ENDBRANCH   9  10
ENDBRANCH   2   8
TORSDOF 6
