REMARK  Name = 
REMARK  14 active torsions:
REMARK  status: ('A' for Active; 'I' for Inactive)
REMARK    1  A    between atoms: C_1  and  C_2
REMARK    2  A    between atoms: C_5  and  C_8
REMARK    3  A    between atoms: C_9  and  N_10
REMARK    4  A    between atoms: N_10  and  N_11
REMARK    5  A    between atoms: N_10  and  N_12
REMARK    6  A    between atoms: C_13  and  C_14
REMARK    7  A    between atoms: C_16  and  C_26
REMARK    8  A    between atoms: N_18  and  C_19
REMARK    9  A    between atoms: C_20  and  C_21
REMARK   10  A    between atoms: C_21  and  C_22
REMARK   11  A    between atoms: C_22  and  C_23
REMARK   12  A    between atoms: C_23  and  C_24
REMARK   13  A    between atoms: C_26  and  N_27
REMARK   14  A    between atoms: C_26  and  C_28
REMARK                            x       y       z     vdW  Elec       q    Type
REMARK                         _______ _______ _______ _____ _____    ______ ____
ROOT
ATOM      1  C   UNL     1      10.386   3.598  -3.778  0.00  0.00    +0.047 C 
ATOM      2  C   UNL     1       9.902   5.016  -3.331  0.00  0.00    +0.061 C 
ATOM      3  C   UNL     1      11.633   3.734  -2.790  0.00  0.00    +0.059 C 
ATOM      4  C   UNL     1      11.335   5.236  -2.868  0.00  0.00    +0.025 C 
ATOM      5  N   UNL     1      11.962   6.341  -2.726  0.00  0.00    -0.264 NA
ENDROOT
BRANCH   1   7
ATOM      6  N   UNL     1       9.735   1.233  -4.067  0.00  0.00    -0.177 NA
ATOM      7  C   UNL     1       9.419   2.408  -3.617  0.00  0.00    +0.109 C 
BRANCH   6   8
ATOM      8  N   UNL     1       8.798   0.279  -3.817  0.00  0.00    -0.167 N 
BRANCH   8   9
ATOM      9  N   UNL     1       7.610   0.476  -4.516  0.00  0.00    -0.234 NA
ATOM     10  H   UNL     1       6.923  -0.223  -4.250  0.00  0.00    +0.143 HD
ATOM     11  H   UNL     1       7.813   0.321  -5.503  0.00  0.00    +0.143 HD
ENDBRANCH   8   9
BRANCH   8  13
ATOM     12  C   UNL     1       8.470  -2.140  -3.351  0.00  0.00    -0.001 C 
ATOM     13  C   UNL     1       9.200  -1.024  -3.547  0.00  0.00    +0.111 C 
BRANCH  12  18
ATOM     14  C   UNL     1       8.078  -7.427  -1.899  0.00  0.00    +0.012 C 
ATOM     15  C   UNL     1       7.510  -6.050  -2.264  0.00  0.00    +0.008 C 
ATOM     16  C   UNL     1       7.744  -5.719  -3.747  0.00  0.00    +0.008 C 
ATOM     17  C   UNL     1       8.655  -4.539  -4.115  0.00  0.00    +0.012 C 
ATOM     18  C   UNL     1       9.039  -3.511  -3.031  0.00  0.00    +0.035 C 
ATOM     19  C   UNL     1       8.671  -3.911  -1.633  0.00  0.00    -0.023 C 
ATOM     20  C   UNL     1       8.003  -5.021  -1.295  0.00  0.00    -0.027 C 
ENDBRANCH  12  18
ENDBRANCH   8  13
ENDBRANCH   6   8
ENDBRANCH   1   7
BRANCH   5  21
ATOM     21  C   UNL     1      13.272   6.315  -2.356  0.00  0.00    +0.106 C 
ATOM     22  C   UNL     1      13.965   7.457  -2.220  0.00  0.00    -0.007 C 
BRANCH  22  23
ATOM     23  C   UNL     1      15.385   7.535  -1.740  0.00  0.00    +0.029 C 
BRANCH  23  24
ATOM     24  C   UNL     1      15.529   8.360  -0.455  0.00  0.00    +0.007 C 
BRANCH  24  25
ATOM     25  C   UNL     1      14.735   7.779   0.720  0.00  0.00    +0.034 C 
BRANCH  25  26
ATOM     26  C   UNL     1      14.919   8.599   1.984  0.00  0.00    +0.213 C 
ATOM     27  F   UNL     1      16.229   8.580   2.345  0.00  0.00    -0.249 F 
ENDBRANCH  25  26
ENDBRANCH  24  25
ENDBRANCH  23  24
ENDBRANCH  22  23
ENDBRANCH   5  21
BRANCH   3  28
ATOM     28  C   UNL     1      11.671   3.117  -1.379  0.00  0.00    +0.057 C 
ATOM     29  C   UNL     1      11.584   1.592  -1.414  0.00  0.00    +0.024 C 
BRANCH  28  30
ATOM     30  N   UNL     1      10.642   3.620  -0.472  0.00  0.00    -0.327 NA
ATOM     31  H   UNL     1       9.707   3.526  -0.861  0.00  0.00    +0.118 HD
ATOM     32  H   UNL     1      10.799   4.604  -0.258  0.00  0.00    +0.118 HD
ENDBRANCH  28  30
ENDBRANCH   3  28
TORSDOF 12
