REMARK  Name = 
REMARK  6 active torsions:
REMARK  status: ('A' for Active; 'I' for Inactive)
REMARK    1  A    between atoms: C_13  and  C_14
REMARK    2  A    between atoms: C_14  and  O_15
REMARK    3  A    between atoms: O_15  and  C_16
REMARK    4  A    between atoms: C_17  and  C_18
REMARK    5  A    between atoms: C_19  and  C_20
REMARK    6  A    between atoms: C_20  and  C_21
REMARK                            x       y       z     vdW  Elec       q    Type
REMARK                         _______ _______ _______ _____ _____    ______ ____
ROOT
ATOM      1  C   UNL     1       4.454   0.630   2.030  0.00  0.00    +0.054 C 
ATOM      2  C   UNL     1       5.546   0.022   2.878  0.00  0.00    -0.029 C 
ATOM      3  C   UNL     1       5.922   0.143   4.167  0.00  0.00    -0.027 C 
ATOM      4  C   UNL     1       5.570   0.861   5.449  0.00  0.00    +0.057 C 
ATOM      5  C   UNL     1       4.268   1.583   5.726  0.00  0.00    -0.069 C 
ATOM      6  C   UNL     1       4.284   2.580   6.635  0.00  0.00    +0.008 C 
ATOM      7  C   UNL     1       2.935   1.112   5.187  0.00  0.00    +0.066 C 
ATOM      8  C   UNL     1       2.769  -0.379   5.183  0.00  0.00    +0.032 C 
ATOM      9  C   UNL     1       2.833  -1.162   4.141  0.00  0.00    -0.083 C 
ATOM     10  C   UNL     1       3.028  -2.018   3.187  0.00  0.00    +0.164 C 
ATOM     11  N   UNL     1       2.168  -2.213   2.149  0.00  0.00    -0.242 N 
ATOM     12  N   UNL     1       3.414  -1.689   1.906  0.00  0.00    -0.224 N 
ATOM     13  C   UNL     1       3.461  -0.347   1.307  0.00  0.00    +0.137 C 
ATOM     14  H   UNL     1       2.123  -3.211   1.930  0.00  0.00    +0.172 HD
ENDROOT
BRANCH  13  15
ATOM     15  C   UNL     1       3.772  -0.542  -0.220  0.00  0.00    +0.252 C 
BRANCH  15  16
ATOM     16  O   UNL     1       3.741   0.710  -0.921  0.00  0.00    -0.498 OA
BRANCH  16  17
ATOM     17  C   UNL     1       3.817   0.632  -2.297  0.00  0.00    +0.187 C 
ATOM     18  C   UNL     1       3.813   1.759  -3.019  0.00  0.00    +0.037 C 
BRANCH  18  19
ATOM     19  C   UNL     1       3.879   1.908  -4.461  0.00  0.00    -0.001 C 
ATOM     20  C   UNL     1       3.875   3.135  -5.016  0.00  0.00    -0.027 C 
BRANCH  20  21
ATOM     21  C   UNL     1       3.931   3.472  -6.481  0.00  0.00    +0.024 C 
ATOM     22  C   UNL     1       5.127   4.363  -6.800  0.00  0.00    +0.008 C 
ENDBRANCH  20  21
ENDBRANCH  18  19
ENDBRANCH  16  17
ENDBRANCH  15  16
ENDBRANCH  13  15
TORSDOF 5
