REMARK  Name = 
REMARK  2 active torsions:
REMARK  status: ('A' for Active; 'I' for Inactive)
REMARK    1  A    between atoms: C_2  and  C_3
REMARK    2  A    between atoms: C_3  and  C_4
REMARK                            x       y       z     vdW  Elec       q    Type
REMARK                         _______ _______ _______ _____ _____    ______ ____
ROOT
ATOM      1  C   UNL     1       4.392  -0.769  -0.906  0.00  0.00    +0.102 C 
ATOM      2  N   UNL     1       5.295   0.253  -1.446  0.00  0.00    -0.343 N 
ATOM      3  C   UNL     1       6.464  -0.033  -2.078  0.00  0.00    +0.070 C 
ATOM      4  C   UNL     1       7.019  -1.240  -1.997  0.00  0.00    +0.042 C 
ATOM      5  C   UNL     1       6.365  -2.306  -1.253  0.00  0.00    +0.066 C 
ATOM      6  C   UNL     1       5.027  -2.186  -0.972  0.00  0.00    -0.020 C 
ATOM      7  C   UNL     1       4.092  -3.315  -0.497  0.00  0.00    +0.070 C 
ATOM      8  C   UNL     1       3.417  -3.157   0.897  0.00  0.00    -0.040 A 
ATOM      9  C   UNL     1       2.027  -2.900   0.834  0.00  0.00    +0.004 A 
ATOM     10  C   UNL     1       1.294  -2.521   1.951  0.00  0.00    +0.000 A 
ATOM     11  C   UNL     1       1.917  -2.454   3.188  0.00  0.00    +0.000 A 
ATOM     12  C   UNL     1       3.257  -2.825   3.320  0.00  0.00    +0.004 A 
ATOM     13  C   UNL     1       4.037  -3.193   2.204  0.00  0.00    -0.044 A 
ATOM     14  C   UNL     1       5.516  -3.601   2.537  0.00  0.00    +0.041 C 
ATOM     15  C   UNL     1       6.203  -3.641   1.228  0.00  0.00    +0.052 C 
ATOM     16  C   UNL     1       7.375  -3.746   0.322  0.00  0.00    +0.084 C 
ATOM     17  N   UNL     1       7.312  -3.279  -0.903  0.00  0.00    -0.260 NA
ATOM     18  H   UNL     1       4.885   1.160  -1.637  0.00  0.00    +0.146 HD
ENDROOT
BRANCH   1  19
ATOM     19  C   UNL     1       2.998  -0.549  -1.541  0.00  0.00    +0.053 C 
BRANCH  19  21
ATOM     20  C   UNL     1       2.011   1.756  -1.864  0.00  0.00    +0.004 C 
ATOM     21  C   UNL     1       2.372   0.745  -1.059  0.00  0.00    -0.032 C 
ENDBRANCH  19  21
ENDBRANCH   1  19
TORSDOF 2
