REMARK  Name = 
REMARK  6 active torsions:
REMARK  status: ('A' for Active; 'I' for Inactive)
REMARK    1  A    between atoms: C_4  and  C_12
REMARK    2  A    between atoms: C_9  and  C_10
REMARK    3  A    between atoms: C_12  and  C_13
REMARK    4  A    between atoms: C_12  and  C_14
REMARK    5  A    between atoms: C_14  and  C_15
REMARK    6  A    between atoms: C_20  and  N_21
REMARK                            x       y       z     vdW  Elec       q    Type
REMARK                         _______ _______ _______ _____ _____    ______ ____
ROOT
ATOM      1  C   UNL     1       2.496   0.386   1.791  0.00  0.00    +0.032 C 
ATOM      2  C   UNL     1       2.786   0.887   3.227  0.00  0.00    +0.029 C 
ATOM      3  C   UNL     1       3.234   0.080   4.455  0.00  0.00    -0.022 C 
ATOM      4  C   UNL     1       3.341  -1.214   4.857  0.00  0.00    -0.039 C 
ATOM      5  C   UNL     1       2.992  -2.361   4.035  0.00  0.00    +0.077 C 
ATOM      6  C   UNL     1       2.053  -2.357   3.138  0.00  0.00    +0.007 C 
ATOM      7  N   UNL     1       1.232  -2.280   2.301  0.00  0.00    -0.142 NA
ATOM      8  N   UNL     1       0.556  -1.101   2.328  0.00  0.00    -0.254 N 
ATOM      9  C   UNL     1       1.046  -0.051   1.430  0.00  0.00    +0.112 C 
ATOM     10  H   UNL     1       0.515  -0.704   3.266  0.00  0.00    +0.169 HD
ENDROOT
BRANCH   9  11
ATOM     11  C   UNL     1       0.076   1.115   1.323  0.00  0.00    -0.011 C 
ATOM     12  C   UNL     1      -1.107   1.258   1.943  0.00  0.00    +0.006 C 
ENDBRANCH   9  11
BRANCH   4  13
ATOM     13  C   UNL     1       3.907  -1.557   6.301  0.00  0.00    +0.020 C 
ATOM     14  C   UNL     1       3.048  -0.927   7.411  0.00  0.00    +0.013 C 
BRANCH  13  15
ATOM     15  C   UNL     1       4.110  -3.081   6.618  0.00  0.00    +0.035 C 
BRANCH  15  16
ATOM     16  C   UNL     1       4.649  -3.498   7.980  0.00  0.00    -0.019 C 
ATOM     17  C   UNL     1       4.109  -4.373   8.848  0.00  0.00    -0.008 C 
ATOM     18  C   UNL     1       4.859  -4.983  10.039  0.00  0.00    +0.138 C 
ATOM     19  N   UNL     1       4.174  -6.276  10.202  0.00  0.00    -0.344 N 
ATOM     20  C   UNL     1       2.935  -6.173   9.601  0.00  0.00    +0.096 C 
ATOM     21  C   UNL     1       2.831  -5.093   8.816  0.00  0.00    +0.081 C 
ATOM     22  H   UNL     1       4.158  -6.654  11.141  0.00  0.00    +0.146 HD
BRANCH  21  23
ATOM     23  N   UNL     1       1.735  -4.515   8.235  0.00  0.00    -0.262 NA
ATOM     24  C   UNL     1       0.666  -5.226   8.123  0.00  0.00    +0.141 C 
ENDBRANCH  21  23
ENDBRANCH  15  16
ENDBRANCH  13  15
ENDBRANCH   4  13
TORSDOF 5
