REMARK  Name = 
REMARK  1 active torsions:
REMARK  status: ('A' for Active; 'I' for Inactive)
REMARK    1  A    between atoms: N_6  and  C_7
REMARK                            x       y       z     vdW  Elec       q    Type
REMARK                         _______ _______ _______ _____ _____    ______ ____
ROOT
ATOM      1  C   UNL     1      -0.441  -1.203   0.026  0.00  0.00    +0.132 C 
ATOM      2  C   UNL     1       0.960  -0.660   0.039  0.00  0.00    -0.006 C 
ATOM      3  C   UNL     1       0.965   0.679   0.109  0.00  0.00    +0.020 C 
ATOM      4  C   UNL     1      -0.401   1.150   0.144  0.00  0.00    +0.022 C 
ATOM      5  C   UNL     1      -0.728   2.440   0.229  0.00  0.00    +0.033 C 
ATOM      6  N   UNL     1      -1.224   0.038   0.095  0.00  0.00    -0.330 N 
ATOM      7  C   UNL     1      -2.581  -0.002  -0.408  0.00  0.00    +0.129 C 
ENDROOT
TORSDOF 0
