REMARK  Name = 
REMARK  6 active torsions:
REMARK  status: ('A' for Active; 'I' for Inactive)
REMARK    1  A    between atoms: C_2  and  C_3
REMARK    2  A    between atoms: C_2  and  C_4
REMARK    3  A    between atoms: C_6  and  C_7
REMARK    4  A    between atoms: C_6  and  C_8
REMARK    5  A    between atoms: C_9  and  C_10
REMARK    6  A    between atoms: C_10  and  C_11
REMARK                            x       y       z     vdW  Elec       q    Type
REMARK                         _______ _______ _______ _____ _____    ______ ____
ROOT
ATOM      1  C   UNL     1      -0.083   0.822  -0.034  0.00  0.00    +0.042 C 
ATOM      2  C   UNL     1       0.763  -0.500   0.103  0.00  0.00    -0.010 C 
ATOM      3  C   UNL     1       1.560  -0.973  -1.081  0.00  0.00    +0.016 C 
ATOM      4  C   UNL     1       1.364  -0.828   1.444  0.00  0.00    +0.016 C 
ATOM      5  C   UNL     1      -0.653  -0.468   0.001  0.00  0.00    -0.060 C 
ATOM      6  C   UNL     1      -1.762  -1.190  -0.022  0.00  0.00    -0.051 C 
ATOM      7  C   UNL     1      -1.690  -2.690   0.043  0.00  0.00    +0.044 C 
ENDROOT
BRANCH   6   8
ATOM      8  C   UNL     1      -3.063  -0.535  -0.083  0.00  0.00    -0.001 C 
ATOM      9  C   UNL     1      -4.254  -1.155  -0.092  0.00  0.00    -0.027 C 
BRANCH   9  10
ATOM     10  C   UNL     1      -5.575  -0.438  -0.096  0.00  0.00    +0.024 C 
ATOM     11  C   UNL     1      -6.402  -0.791  -1.322  0.00  0.00    +0.008 C 
ENDBRANCH   9  10
ENDBRANCH   6   8
TORSDOF 2
