REMARK  Name = 
REMARK  10 active torsions:
REMARK  status: ('A' for Active; 'I' for Inactive)
REMARK    1  A    between atoms: C_2  and  C_3
REMARK    2  A    between atoms: C_4  and  C_5
REMARK    3  A    between atoms: C_5  and  C_6
REMARK    4  A    between atoms: C_5  and  C_7
REMARK    5  A    between atoms: C_8  and  C_9
REMARK    6  A    between atoms: C_10  and  C_11
REMARK    7  A    between atoms: N_13  and  C_14
REMARK    8  A    between atoms: C_15  and  C_16
REMARK    9  A    between atoms: C_17  and  C_18
REMARK   10  A    between atoms: N_28  and  C_29
REMARK                            x       y       z     vdW  Elec       q    Type
REMARK                         _______ _______ _______ _____ _____    ______ ____
ROOT
ATOM      1  C   UNL     1      13.769   3.030   3.685  0.00  0.00    +0.075 C 
ATOM      2  C   UNL     1      14.623   3.692   4.479  0.00  0.00    +0.015 C 
ENDROOT
BRANCH   1   5
ATOM      3  C   UNL     1      11.536   2.421   2.982  0.00  0.00    +0.241 C 
ATOM      4  O   UNL     1      11.893   1.682   2.070  0.00  0.00    -0.271 OA
ATOM      5  N   UNL     1      12.400   3.107   3.818  0.00  0.00    -0.288 N 
ATOM      6  H   UNL     1      12.022   3.695   4.550  0.00  0.00    +0.155 HD
BRANCH   3   8
ATOM      7  C   UNL     1       9.158   2.051   2.540  0.00  0.00    +0.005 C 
ATOM      8  C   UNL     1      10.096   2.657   3.286  0.00  0.00    +0.067 C 
BRANCH   7  10
ATOM      9  C   UNL     1       6.817   1.569   1.997  0.00  0.00    -0.020 C 
ATOM     10  C   UNL     1       7.735   2.199   2.753  0.00  0.00    -0.004 C 
BRANCH   9  11
ATOM     11  C   UNL     1       5.326   1.668   2.220  0.00  0.00    +0.031 C 
ATOM     12  C   UNL     1       4.752   0.294   2.577  0.00  0.00    +0.016 C 
BRANCH  11  14
ATOM     13  C   UNL     1       3.937   3.368   0.993  0.00  0.00    -0.004 C 
ATOM     14  C   UNL     1       4.624   2.214   0.998  0.00  0.00    -0.020 C 
BRANCH  13  16
ATOM     15  C   UNL     1       2.552   5.023  -0.147  0.00  0.00    +0.008 C 
ATOM     16  C   UNL     1       3.223   3.865  -0.158  0.00  0.00    -0.008 C 
ENDBRANCH  13  16
ENDBRANCH  11  14
ENDBRANCH   9  11
ENDBRANCH   7  10
ENDBRANCH   3   8
ENDBRANCH   1   5
BRANCH   2  17
ATOM     17  C   UNL     1      16.061   3.604   4.310  0.00  0.00    +0.001 C 
ATOM     18  C   UNL     1      16.943   4.255   5.087  0.00  0.00    +0.001 C 
BRANCH  18  19
ATOM     19  C   UNL     1      18.382   4.134   4.903  0.00  0.00    +0.008 C 
ATOM     20  C   UNL     1      19.381   4.667   5.649  0.00  0.00    -0.014 A 
ATOM     21  C   UNL     1      20.802   4.378   5.365  0.00  0.00    +0.015 A 
ATOM     22  C   UNL     1      21.249   3.342   4.631  0.00  0.00    +0.021 C 
ATOM     23  C   UNL     1      19.122   5.520   6.800  0.00  0.00    +0.028 A 
ATOM     24  C   UNL     1      20.139   6.068   7.480  0.00  0.00    +0.113 A 
ATOM     25  N   UNL     1      21.468   5.979   7.156  0.00  0.00    -0.240 NA
ATOM     26  C   UNL     1      21.818   5.248   6.119  0.00  0.00    +0.131 A 
ATOM     27  N   UNL     1      23.155   5.322   5.782  0.00  0.00    -0.290 N 
ATOM     28  C   UNL     1      23.817   5.175   4.604  0.00  0.00    +0.187 C 
ATOM     29  N   UNL     1      25.102   5.198   4.443  0.00  0.00    -0.249 NA
ATOM     30  H   UNL     1      23.726   5.696   6.529  0.00  0.00    +0.154 HD
BRANCH  29  31
ATOM     31  C   UNL     1      25.517   4.954   3.163  0.00  0.00    +0.104 C 
ATOM     32  C   UNL     1      26.798   5.040   2.802  0.00  0.00    +0.029 C 
ENDBRANCH  29  31
ENDBRANCH  18  19
ENDBRANCH   2  17
TORSDOF 9
