REMARK  Name = 
REMARK  11 active torsions:
REMARK  status: ('A' for Active; 'I' for Inactive)
REMARK    1  A    between atoms: C_1  and  C_2
REMARK    2  A    between atoms: C_5  and  N_6
REMARK    3  A    between atoms: C_7  and  C_8
REMARK    4  A    between atoms: C_8  and  C_9
REMARK    5  A    between atoms: C_9  and  C_10
REMARK    6  A    between atoms: C_9  and  C_12
REMARK    7  A    between atoms: C_13  and  C_14
REMARK    8  A    between atoms: C_14  and  C_15
REMARK    9  A    between atoms: C_15  and  N_16
REMARK   10  A    between atoms: N_16  and  C_17
REMARK   11  A    between atoms: C_18  and  C_19
REMARK                            x       y       z     vdW  Elec       q    Type
REMARK                         _______ _______ _______ _____ _____    ______ ____
ROOT
ATOM      1  C   UNL     1       1.905  -2.911   0.657  0.00  0.00    +0.075 C 
ENDROOT
BRANCH   1   2
ATOM      2  C   UNL     1       1.425  -1.915   1.693  0.00  0.00    +0.230 C 
ATOM      3  O   UNL     1       0.662  -0.983   1.451  0.00  0.00    -0.300 OA
ENDBRANCH   1   2
BRANCH   1   4
ATOM      4  C   UNL     1       0.913  -4.045   0.628  0.00  0.00    -0.020 C 
ATOM      5  C   UNL     1       1.262  -5.298   0.962  0.00  0.00    -0.029 C 
BRANCH   5   6
ATOM      6  C   UNL     1       0.306  -6.456   0.999  0.00  0.00    +0.045 C 
BRANCH   6   7
ATOM      7  C   UNL     1       1.016  -7.751   1.394  0.00  0.00    +0.105 C 
BRANCH   7   8
ATOM      8  N   UNL     1       0.076  -8.852   1.467  0.00  0.00    -0.349 N 
ATOM      9  H   UNL     1      -0.890  -8.672   1.205  0.00  0.00    +0.146 HD
BRANCH   8  10
ATOM     10  C   UNL     1       0.399 -10.139   1.800  0.00  0.00    +0.067 C 
ATOM     11  C   UNL     1      -0.449 -11.173   1.850  0.00  0.00    +0.017 C 
BRANCH  11  12
ATOM     12  C   UNL     1      -0.035 -12.507   2.208  0.00  0.00    +0.031 C 
ATOM     13  C   UNL     1      -0.881 -13.536   2.265  0.00  0.00    +0.181 C 
ATOM     14  F   UNL     1      -0.459 -14.769   2.603  0.00  0.00    -0.214 F 
ENDBRANCH  11  12
ENDBRANCH   8  10
ENDBRANCH   7   8
ENDBRANCH   6   7
ENDBRANCH   5   6
ENDBRANCH   1   4
BRANCH   1  15
ATOM     15  C   UNL     1       2.133  -2.306  -0.733  0.00  0.00    +0.028 C 
BRANCH  15  21
ATOM     16  C   UNL     1       3.058  -1.459  -3.420  0.00  0.00    +0.052 C 
ATOM     17  C   UNL     1       3.282  -0.527  -2.228  0.00  0.00    +0.178 C 
ATOM     18  O   UNL     1       4.638  -0.032  -2.351  0.00  0.00    -0.494 OA
ATOM     19  C   UNL     1       5.318  -0.710  -1.367  0.00  0.00    +0.206 C 
ATOM     20  C   UNL     1       4.590  -1.370  -0.469  0.00  0.00    +0.043 C 
ATOM     21  C   UNL     1       3.140  -1.139  -0.799  0.00  0.00    +0.077 C 
BRANCH  20  22
ATOM     22  N   UNL     1       5.073  -2.002   0.644  0.00  0.00    -0.359 N 
ATOM     23  H   UNL     1       6.065  -2.229   0.577  0.00  0.00    +0.142 HD
ATOM     24  H   UNL     1       4.551  -2.792   0.985  0.00  0.00    +0.142 HD
ENDBRANCH  20  22
ENDBRANCH  15  21
ENDBRANCH   1  15
TORSDOF 10
