REMARK  Name = 
REMARK  12 active torsions:
REMARK  status: ('A' for Active; 'I' for Inactive)
REMARK    1  A    between atoms: C_1  and  C_2
REMARK    2  A    between atoms: C_2  and  O_3
REMARK    3  A    between atoms: O_3  and  C_4
REMARK    4  A    between atoms: C_5  and  C_6
REMARK    5  A    between atoms: C_6  and  C_7
REMARK    6  A    between atoms: C_6  and  C_8
REMARK    7  A    between atoms: C_9  and  N_10
REMARK    8  A    between atoms: C_9  and  N_11
REMARK    9  A    between atoms: C_18  and  C_19
REMARK   10  A    between atoms: C_20  and  C_21
REMARK   11  A    between atoms: C_21  and  C_23
REMARK   12  A    between atoms: C_23  and  N_24
REMARK                            x       y       z     vdW  Elec       q    Type
REMARK                         _______ _______ _______ _____ _____    ______ ____
ROOT
ATOM      1  N   UNL     1       8.025   4.965   4.159  0.00  0.00    -0.314 N 
ATOM      2  C   UNL     1       7.116   5.168   5.307  0.00  0.00    +0.141 C 
ATOM      3  C   UNL     1       6.434   6.522   5.237  0.00  0.00    -0.030 C 
ATOM      4  C   UNL     1       5.220   6.646   4.668  0.00  0.00    +0.014 C 
ATOM      5  C   UNL     1       8.952   6.087   3.879  0.00  0.00    +0.110 C 
ATOM      6  C   UNL     1       9.457   6.807   5.136  0.00  0.00    +0.046 C 
ATOM      7  C   UNL     1       8.486   7.753   5.799  0.00  0.00    -0.017 C 
ATOM      8  C   UNL     1       7.135   7.675   5.839  0.00  0.00    -0.025 C 
ENDROOT
BRANCH   1  10
ATOM      9  C   UNL     1       6.636   3.450   2.887  0.00  0.00    +0.019 C 
ATOM     10  C   UNL     1       7.847   3.959   3.207  0.00  0.00    +0.080 C 
BRANCH  10  11
ATOM     11  N   UNL     1       8.984   3.478   2.599  0.00  0.00    -0.347 N 
ATOM     12  H   UNL     1       8.901   2.506   2.326  0.00  0.00    +0.143 HD
ATOM     13  H   UNL     1       9.768   3.595   3.232  0.00  0.00    +0.143 HD
ENDBRANCH  10  11
BRANCH   9  14
ATOM     14  C   UNL     1       6.311   2.377   1.871  0.00  0.00    +0.037 C 
ATOM     15  C   UNL     1       5.451   2.944   0.737  0.00  0.00    +0.016 C 
BRANCH  14  17
ATOM     16  C   UNL     1       6.075  -0.014   2.606  0.00  0.00    +0.183 C 
ATOM     17  C   UNL     1       5.587   1.228   2.530  0.00  0.00    +0.018 C 
BRANCH  16  18
ATOM     18  O   UNL     1       5.375  -1.029   3.200  0.00  0.00    -0.500 OA
BRANCH  18  20
ATOM     19  C   UNL     1       4.863  -3.360   3.323  0.00  0.00    +0.048 C 
ATOM     20  C   UNL     1       5.721  -2.304   2.654  0.00  0.00    +0.225 C 
ENDBRANCH  18  20
ENDBRANCH  16  18
ENDBRANCH  14  17
ENDBRANCH   9  14
ENDBRANCH   1  10
BRANCH   8  21
ATOM     21  C   UNL     1       6.459   8.811   6.490  0.00  0.00    +0.008 C 
ATOM     22  C   UNL     1       5.287   8.749   7.143  0.00  0.00    +0.005 C 
BRANCH  22  23
ATOM     23  C   UNL     1       4.595   9.904   7.690  0.00  0.00    -0.041 C 
ATOM     24  C   UNL     1       5.168  10.698   8.609  0.00  0.00    +0.013 C 
BRANCH  23  25
ATOM     25  C   UNL     1       3.175  10.116   7.213  0.00  0.00    +0.112 C 
BRANCH  25  26
ATOM     26  N   UNL     1       3.116  10.369   5.776  0.00  0.00    -0.326 NA
ATOM     27  H   UNL     1       3.668  11.200   5.568  0.00  0.00    +0.119 HD
ATOM     28  H   UNL     1       2.158  10.584   5.511  0.00  0.00    +0.119 HD
ENDBRANCH  25  26
ENDBRANCH  23  25
ENDBRANCH  22  23
ENDBRANCH   8  21
TORSDOF 10
