REMARK  Name = 
REMARK  7 active torsions:
REMARK  status: ('A' for Active; 'I' for Inactive)
REMARK    1  A    between atoms: C_6  and  C_7
REMARK    2  A    between atoms: C_10  and  C_20
REMARK    3  A    between atoms: C_12  and  N_13
REMARK    4  A    between atoms: C_14  and  O_15
REMARK    5  A    between atoms: O_15  and  C_16
REMARK    6  A    between atoms: C_16  and  C_17
REMARK    7  A    between atoms: C_17  and  C_18
REMARK                            x       y       z     vdW  Elec       q    Type
REMARK                         _______ _______ _______ _____ _____    ______ ____
ROOT
ATOM      1  C   UNL     1       1.731   2.305  -0.275  0.00  0.00    +0.119 A 
ATOM      2  N   UNL     1       2.546   2.377  -1.365  0.00  0.00    -0.147 NA
ATOM      3  N   UNL     1       3.409   3.422  -1.557  0.00  0.00    -0.154 NA
ATOM      4  C   UNL     1       3.475   4.394  -0.639  0.00  0.00    +0.063 A 
ATOM      5  C   UNL     1       2.686   4.359   0.499  0.00  0.00    +0.055 A 
ATOM      6  C   UNL     1       1.761   3.323   0.700  0.00  0.00    +0.096 A 
ATOM      7  C   UNL     1       4.403   5.540  -0.888  0.00  0.00    +0.067 C 
ENDROOT
BRANCH   1  13
ATOM      8  C   UNL     1       0.535   0.457  -1.494  0.00  0.00    +0.010 A 
ATOM      9  C   UNL     1      -0.234  -0.710  -1.544  0.00  0.00    +0.001 A 
ATOM     10  C   UNL     1      -0.706  -1.275  -0.370  0.00  0.00    +0.000 A 
ATOM     11  C   UNL     1      -0.404  -0.677   0.851  0.00  0.00    +0.001 A 
ATOM     12  C   UNL     1       0.375   0.487   0.895  0.00  0.00    +0.010 A 
ATOM     13  C   UNL     1       0.864   1.094  -0.275  0.00  0.00    +0.004 A 
ENDBRANCH   1  13
BRANCH   6  14
ATOM     14  N   UNL     1       0.906   3.302   1.835  0.00  0.00    -0.218 NA
ATOM     15  C   UNL     1       0.658   4.377   2.492  0.00  0.00    +0.301 C 
BRANCH  15  16
ATOM     16  O   UNL     1      -0.174   4.362   3.556  0.00  0.00    -0.482 OA
BRANCH  16  17
ATOM     17  C   UNL     1      -0.463   5.665   4.083  0.00  0.00    +0.232 C 
BRANCH  17  18
ATOM     18  C   UNL     1      -1.303   5.540   5.346  0.00  0.00    +0.074 C 
BRANCH  18  19
ATOM     19  C   UNL     1      -0.503   4.927   6.480  0.00  0.00    +0.216 C 
ATOM     20  F   UNL     1       0.549   5.743   6.762  0.00  0.00    -0.249 F 
ENDBRANCH  18  19
ENDBRANCH  17  18
ENDBRANCH  16  17
ENDBRANCH  15  16
ENDBRANCH   6  14
TORSDOF 6
