REMARK  Name = 
REMARK  0 active torsions:
REMARK  status: ('A' for Active; 'I' for Inactive)
REMARK                            x       y       z     vdW  Elec       q    Type
REMARK                         _______ _______ _______ _____ _____    ______ ____
ROOT
ATOM      1  C   UNL     1       1.079   0.007   0.049  0.00  0.00    +0.013 C 
ATOM      2  C   UNL     1       2.387   0.008   0.074  0.00  0.00    -0.047 C 
ATOM      3  C   UNL     1       3.606   0.763   0.122  0.00  0.00    +0.069 C 
ATOM      4  C   UNL     1       3.563  -0.668   0.074  0.00  0.00    -0.047 C 
ATOM      5  C   UNL     1       4.212  -1.808   0.049  0.00  0.00    +0.013 C 
ENDROOT
TORSDOF 0
