REMARK  Name = 
REMARK  20 active torsions:
REMARK  status: ('A' for Active; 'I' for Inactive)
REMARK    1  A    between atoms: C_1  and  C_2
REMARK    2  A    between atoms: C_3  and  C_4
REMARK    3  A    between atoms: C_5  and  C_6
REMARK    4  A    between atoms: C_5  and  C_10
REMARK    5  A    between atoms: C_6  and  C_7
REMARK    6  A    between atoms: C_8  and  N_9
REMARK    7  A    between atoms: C_12  and  C_20
REMARK    8  A    between atoms: C_14  and  C_15
REMARK    9  A    between atoms: C_16  and  C_17
REMARK   10  A    between atoms: C_16  and  C_18
REMARK   11  A    between atoms: C_18  and  C_19
REMARK   12  A    between atoms: C_20  and  C_21
REMARK   13  A    between atoms: C_22  and  C_23
REMARK   14  A    between atoms: C_23  and  C_24
REMARK   15  A    between atoms: C_23  and  C_25
REMARK   16  A    between atoms: C_25  and  C_26
REMARK   17  A    between atoms: C_26  and  N_27
REMARK   18  A    between atoms: N_27  and  N_28
REMARK   19  A    between atoms: N_28  and  C_29
REMARK   20  A    between atoms: C_29  and  N_30
REMARK                            x       y       z     vdW  Elec       q    Type
REMARK                         _______ _______ _______ _____ _____    ______ ____
ROOT
ATOM      1  C   UNL     1       6.772  -1.569   1.574  0.00  0.00    +0.045 C 
ATOM      2  C   UNL     1       7.563  -0.417   0.913  0.00  0.00    +0.020 C 
ATOM      3  C   UNL     1       8.058  -0.951  -0.439  0.00  0.00    +0.017 C 
ATOM      4  C   UNL     1       8.057  -2.432  -0.205  0.00  0.00    -0.019 C 
ATOM      5  C   UNL     1       7.356  -2.777   0.884  0.00  0.00    -0.044 C 
ENDROOT
BRANCH   5   6
ATOM      6  C   UNL     1       7.337  -4.102   1.452  0.00  0.00    +0.003 C 
ATOM      7  C   UNL     1       6.881  -5.237   0.883  0.00  0.00    -0.073 C 
ATOM      8  C   UNL     1       6.179  -5.315  -0.446  0.00  0.00    +0.039 C 
BRANCH   7   9
ATOM      9  C   UNL     1       7.090  -6.572   1.570  0.00  0.00    +0.027 C 
ATOM     10  C   UNL     1       5.951  -6.960   2.501  0.00  0.00    +0.008 C 
ENDBRANCH   7   9
ENDBRANCH   5   6
BRANCH   1  12
ATOM     11  C   UNL     1       4.619  -0.859   0.448  0.00  0.00    -0.000 C 
ATOM     12  C   UNL     1       5.243  -1.487   1.474  0.00  0.00    -0.058 C 
BRANCH  11  15
ATOM     13  C   UNL     1       1.099   0.018  -0.776  0.00  0.00    +0.035 C 
ATOM     14  C   UNL     1       2.590  -0.089  -0.726  0.00  0.00    -0.030 C 
ATOM     15  C   UNL     1       3.199  -0.620   0.344  0.00  0.00    -0.005 C 
ENDBRANCH  11  15
BRANCH  12  16
ATOM     16  C   UNL     1       4.540  -2.021   2.717  0.00  0.00    +0.059 C 
BRANCH  16  17
ATOM     17  C   UNL     1       3.568  -3.166   2.601  0.00  0.00    -0.008 C 
ATOM     18  C   UNL     1       3.115  -3.828   1.533  0.00  0.00    +0.060 C 
BRANCH  18  19
ATOM     19  N   UNL     1       2.207  -4.839   1.582  0.00  0.00    -0.364 N 
ATOM     20  H   UNL     1       2.013  -5.288   2.470  0.00  0.00    +0.142 HD
ATOM     21  H   UNL     1       1.923  -5.305   0.729  0.00  0.00    +0.142 HD
ENDBRANCH  18  19
ENDBRANCH  16  17
ENDBRANCH  12  16
ENDBRANCH   1  12
BRANCH   3  22
ATOM     22  C   UNL     1       9.429  -0.362  -0.788  0.00  0.00    +0.034 C 
BRANCH  22  23
ATOM     23  C   UNL     1       9.916  -0.838  -2.127  0.00  0.00    -0.030 C 
ATOM     24  C   UNL     1      11.044  -1.535  -2.310  0.00  0.00    -0.028 C 
BRANCH  24  25
ATOM     25  C   UNL     1      11.550  -1.975  -3.666  0.00  0.00    +0.010 C 
ATOM     26  C   UNL     1      10.546  -2.909  -4.351  0.00  0.00    +0.012 C 
BRANCH  25  27
ATOM     27  C   UNL     1      11.896  -0.770  -4.562  0.00  0.00    +0.024 C 
BRANCH  27  28
ATOM     28  C   UNL     1      12.983   0.144  -3.977  0.00  0.00    +0.099 C 
BRANCH  28  29
ATOM     29  N   UNL     1      14.243  -0.598  -3.828  0.00  0.00    -0.255 NA
ATOM     30  H   UNL     1      14.528  -0.918  -4.759  0.00  0.00    +0.141 HD
BRANCH  29  31
ATOM     31  N   UNL     1      15.245   0.278  -3.256  0.00  0.00    -0.243 NA
ATOM     32  H   UNL     1      14.969   0.598  -2.322  0.00  0.00    +0.142 HD
BRANCH  31  33
ATOM     33  C   UNL     1      16.478  -0.462  -3.061  0.00  0.00    +0.178 C 
BRANCH  33  34
ATOM     34  N   UNL     1      17.391   0.496  -2.494  0.00  0.00    -0.317 NA
ATOM     35  H   UNL     1      17.423   1.290  -3.131  0.00  0.00    +0.119 HD
ATOM     36  H   UNL     1      18.326   0.095  -2.486  0.00  0.00    +0.119 HD
ENDBRANCH  33  34
ENDBRANCH  31  33
ENDBRANCH  29  31
ENDBRANCH  28  29
ENDBRANCH  27  28
ENDBRANCH  25  27
ENDBRANCH  24  25
ENDBRANCH  22  23
ENDBRANCH   3  22
TORSDOF 16
