REMARK  Name = 
REMARK  3 active torsions:
REMARK  status: ('A' for Active; 'I' for Inactive)
REMARK    1  A    between atoms: C_7  and  N_8
REMARK    2  A    between atoms: N_8  and  C_9
REMARK    3  A    between atoms: C_9  and  C_10
REMARK                            x       y       z     vdW  Elec       q    Type
REMARK                         _______ _______ _______ _____ _____    ______ ____
ROOT
ATOM      1  C   UNL     1      -0.236  -0.680  -0.008  0.00  0.00    -0.003 C 
ATOM      2  C   UNL     1      -0.773   0.557   0.101  0.00  0.00    +0.003 C 
ATOM      3  C   UNL     1       0.515   1.192  -0.063  0.00  0.00    -0.020 C 
ATOM      4  C   UNL     1       0.832   2.473  -0.186  0.00  0.00    -0.020 C 
ATOM      5  C   UNL     1       1.648   3.612  -0.286  0.00  0.00    +0.009 C 
ATOM      6  C   UNL     1       2.188   2.523  -0.755  0.00  0.00    +0.009 C 
ATOM      7  C   UNL     1       1.191  -0.168  -0.095  0.00  0.00    +0.108 C 
ENDROOT
BRANCH   7   8
ATOM      8  N   UNL     1       1.925  -0.477   1.144  0.00  0.00    -0.306 NA
ATOM      9  H   UNL     1       1.336  -0.426   1.975  0.00  0.00    +0.123 HD
BRANCH   8  10
ATOM     10  C   UNL     1       2.518  -1.812   1.031  0.00  0.00    +0.078 C 
ATOM     11  C   UNL     1       3.215  -2.221   2.322  0.00  0.00    +0.020 C 
ENDBRANCH   8  10
ENDBRANCH   7   8
TORSDOF 2
