REMARK  Name = 
REMARK  10 active torsions:
REMARK  status: ('A' for Active; 'I' for Inactive)
REMARK    1  A    between atoms: C_1  and  C_2
REMARK    2  A    between atoms: C_2  and  C_3
REMARK    3  A    between atoms: C_3  and  C_4
REMARK    4  A    between atoms: C_6  and  N_11
REMARK    5  A    between atoms: N_11  and  C_12
REMARK    6  A    between atoms: C_12  and  N_15
REMARK    7  A    between atoms: N_15  and  C_16
REMARK    8  A    between atoms: C_17  and  C_18
REMARK    9  A    between atoms: C_17  and  C_19
REMARK   10  A    between atoms: C_19  and  C_20
REMARK                            x       y       z     vdW  Elec       q    Type
REMARK                         _______ _______ _______ _____ _____    ______ ____
ROOT
ATOM      1  N   UNL     1       7.262  -2.430   0.239  0.00  0.00    -0.281 NA
ATOM      2  H   UNL     1       6.973  -1.668  -0.365  0.00  0.00    +0.125 HD
ENDROOT
BRANCH   1   5
ATOM      3  C   UNL     1       4.439  -1.220   0.699  0.00  0.00    -0.022 C 
ATOM      4  C   UNL     1       5.056  -2.227   1.372  0.00  0.00    -0.032 C 
ATOM      5  C   UNL     1       6.599  -2.323   1.557  0.00  0.00    +0.103 C 
ATOM      6  C   UNL     1       7.061  -3.457   2.543  0.00  0.00    +0.124 C 
ATOM      7  N   UNL     1       6.028  -3.997   3.423  0.00  0.00    -0.348 N 
ATOM      8  C   UNL     1       4.741  -4.042   2.984  0.00  0.00    +0.068 C 
ATOM      9  C   UNL     1       4.249  -3.247   2.029  0.00  0.00    +0.019 C 
ATOM     10  H   UNL     1       6.316  -4.843   3.908  0.00  0.00    +0.146 HD
BRANCH   3  11
ATOM     11  C   UNL     1       2.935  -1.070   0.604  0.00  0.00    +0.027 C 
BRANCH  11  13
ATOM     12  C   UNL     1       0.908   0.162  -0.200  0.00  0.00    +0.004 C 
ATOM     13  C   UNL     1       2.435   0.130  -0.201  0.00  0.00    +0.001 C 
ENDBRANCH  11  13
ENDBRANCH   3  11
ENDBRANCH   1   5
BRANCH   1  14
ATOM     14  C   UNL     1       8.684  -2.698   0.095  0.00  0.00    +0.122 C 
ATOM     15  C   UNL     1       9.612  -1.621   0.312  0.00  0.00    +0.018 C 
ATOM     16  C   UNL     1       9.626  -2.640   1.162  0.00  0.00    +0.018 C 
BRANCH  14  17
ATOM     17  N   UNL     1       9.004  -3.685  -0.919  0.00  0.00    -0.326 N 
ATOM     18  H   UNL     1       9.879  -4.193  -0.834  0.00  0.00    +0.148 HD
BRANCH  17  19
ATOM     19  C   UNL     1       8.488  -3.674  -2.193  0.00  0.00    +0.068 C 
ATOM     20  C   UNL     1       8.673  -4.589  -3.163  0.00  0.00    -0.059 C 
ATOM     21  C   UNL     1       9.458  -5.860  -2.970  0.00  0.00    +0.040 C 
BRANCH  20  22
ATOM     22  C   UNL     1       8.079  -4.375  -4.540  0.00  0.00    +0.028 C 
ATOM     23  C   UNL     1       7.071  -5.438  -4.959  0.00  0.00    +0.008 C 
ENDBRANCH  20  22
ENDBRANCH  17  19
ENDBRANCH  14  17
ENDBRANCH   1  14
TORSDOF 7
