REMARK  Name = 
REMARK  7 active torsions:
REMARK  status: ('A' for Active; 'I' for Inactive)
REMARK    1  A    between atoms: C_5  and  N_10
REMARK    2  A    between atoms: C_11  and  C_13
REMARK    3  A    between atoms: C_14  and  N_15
REMARK    4  A    between atoms: C_17  and  C_18
REMARK    5  A    between atoms: C_18  and  C_19
REMARK    6  A    between atoms: C_19  and  C_20
REMARK    7  A    between atoms: C_19  and  C_21
REMARK                            x       y       z     vdW  Elec       q    Type
REMARK                         _______ _______ _______ _____ _____    ______ ____
ROOT
ATOM      1  N   UNL     1      -2.049   1.900  -2.092  0.00  0.00    -0.306 N 
ATOM      2  C   UNL     1      -1.967   0.719  -2.785  0.00  0.00    +0.239 C 
ATOM      3  O   UNL     1      -0.917   0.209  -3.161  0.00  0.00    -0.271 OA
ATOM      4  H   UNL     1      -2.946   2.331  -1.928  0.00  0.00    +0.150 HD
ENDROOT
BRANCH   1   9
ATOM      5  C   UNL     1       1.273   3.678  -0.074  0.00  0.00    +0.015 C 
ATOM      6  C   UNL     1       1.777   4.521  -1.238  0.00  0.00    +0.008 C 
ATOM      7  C   UNL     1       0.813   4.484  -2.456  0.00  0.00    +0.003 C 
ATOM      8  C   UNL     1       0.038   3.174  -2.770  0.00  0.00    +0.026 C 
ATOM      9  C   UNL     1      -0.846   2.577  -1.649  0.00  0.00    +0.096 C 
ATOM     10  C   UNL     1      -1.210   3.585  -0.592  0.00  0.00    -0.005 C 
ATOM     11  C   UNL     1      -0.238   3.950   0.275  0.00  0.00    -0.069 C 
ATOM     12  C   UNL     1       0.039   3.329   1.655  0.00  0.00    +0.031 C 
ATOM     13  C   UNL     1       1.450   3.942   1.443  0.00  0.00    +0.012 C 
ENDBRANCH   1   9
BRANCH   2  14
ATOM     14  C   UNL     1      -3.283   0.113  -3.092  0.00  0.00    +0.087 C 
ATOM     15  C   UNL     1      -3.452  -0.524  -4.259  0.00  0.00    +0.126 C 
BRANCH  15  16
ATOM     16  N   UNL     1      -4.652  -1.104  -4.599  0.00  0.00    -0.213 NA
ATOM     17  C   UNL     1      -4.872  -1.150  -5.744  0.00  0.00    -0.017 C 
ATOM     18  C   UNL     1      -5.222  -1.239  -7.003  0.00  0.00    +0.045 C 
BRANCH  18  19
ATOM     19  C   UNL     1      -4.923  -0.229  -8.071  0.00  0.00    +0.040 C 
BRANCH  19  20
ATOM     20  C   UNL     1      -6.170   0.360  -8.766  0.00  0.00    -0.013 C 
ATOM     21  C   UNL     1      -7.101   1.086  -7.792  0.00  0.00    +0.007 C 
ATOM     22  C   UNL     1      -5.739   1.330  -9.873  0.00  0.00    +0.007 C 
ENDBRANCH  19  20
ENDBRANCH  18  19
ENDBRANCH  15  16
ENDBRANCH   2  14
TORSDOF 5
