REMARK  Name = 
REMARK  1 active torsions:
REMARK  status: ('A' for Active; 'I' for Inactive)
REMARK    1  A    between atoms: C_6  and  C_7
REMARK                            x       y       z     vdW  Elec       q    Type
REMARK                         _______ _______ _______ _____ _____    ______ ____
ROOT
ATOM      1  C   UNL     1       0.342   0.847  -0.416  0.00  0.00    -0.004 C 
ATOM      2  C   UNL     1       1.403  -0.054   0.150  0.00  0.00    +0.004 C 
ATOM      3  C   UNL     1       0.838  -1.460  -0.080  0.00  0.00    +0.001 C 
ATOM      4  C   UNL     1      -0.671  -1.291   0.131  0.00  0.00    +0.004 C 
ATOM      5  C   UNL     1      -0.950   0.076  -0.429  0.00  0.00    -0.004 C 
ATOM      6  C   UNL     1      -0.827   1.325   0.404  0.00  0.00    -0.007 C 
ATOM      7  C   UNL     1      -1.561   2.558  -0.004  0.00  0.00    +0.008 C 
ENDROOT
TORSDOF 0
