REMARK  Name = 
REMARK  4 active torsions:
REMARK  status: ('A' for Active; 'I' for Inactive)
REMARK    1  A    between atoms: C_4  and  C_5
REMARK    2  A    between atoms: C_4  and  C_9
REMARK    3  A    between atoms: C_6  and  C_7
REMARK    4  A    between atoms: C_7  and  C_8
REMARK                            x       y       z     vdW  Elec       q    Type
REMARK                         _______ _______ _______ _____ _____    ______ ____
ROOT
ATOM      1  C   UNL     1       0.461   1.072   0.219  0.00  0.00    +0.011 C 
ATOM      2  C   UNL     1       1.363  -0.020  -0.375  0.00  0.00    +0.002 C 
ATOM      3  C   UNL     1       0.465  -1.082   0.276  0.00  0.00    +0.011 C 
ATOM      4  C   UNL     1      -0.643  -0.003   0.474  0.00  0.00    -0.014 C 
ATOM      5  C   UNL     1      -1.201   0.063   1.897  0.00  0.00    +0.015 C 
ENDROOT
BRANCH   4   6
ATOM      6  C   UNL     1      -1.731   0.003  -0.561  0.00  0.00    -0.025 C 
ATOM      7  C   UNL     1      -2.550  -1.048  -0.717  0.00  0.00    -0.031 C 
BRANCH   7   8
ATOM      8  C   UNL     1      -3.683  -1.082  -1.704  0.00  0.00    +0.023 C 
ATOM      9  C   UNL     1      -5.021  -1.286  -1.009  0.00  0.00    +0.008 C 
ENDBRANCH   7   8
ENDBRANCH   4   6
TORSDOF 2
