REMARK  Name = 
REMARK  14 active torsions:
REMARK  status: ('A' for Active; 'I' for Inactive)
REMARK    1  A    between atoms: C_8  and  C_9
REMARK    2  A    between atoms: C_10  and  N_11
REMARK    3  A    between atoms: N_11  and  C_12
REMARK    4  A    between atoms: C_12  and  C_14
REMARK    5  A    between atoms: C_15  and  C_16
REMARK    6  A    between atoms: C_18  and  C_19
REMARK    7  A    between atoms: C_19  and  C_20
REMARK    8  A    between atoms: C_20  and  C_21
REMARK    9  A    between atoms: C_21  and  C_23
REMARK   10  A    between atoms: C_23  and  C_24
REMARK   11  A    between atoms: C_24  and  C_25
REMARK   12  A    between atoms: C_25  and  C_26
REMARK   13  A    between atoms: C_26  and  C_27
REMARK   14  A    between atoms: C_27  and  C_28
REMARK                            x       y       z     vdW  Elec       q    Type
REMARK                         _______ _______ _______ _____ _____    ______ ____
ROOT
ATOM      1  C   UNL     1      -6.000  -4.912  -1.405  0.00  0.00    -0.046 C 
ATOM      2  C   UNL     1      -7.199  -5.391  -1.590  0.00  0.00    -0.059 C 
ENDROOT
BRANCH   2   3
ATOM      3  C   UNL     1      -8.515  -5.887  -1.742  0.00  0.00    +0.111 C 
ATOM      4  C   UNL     1      -9.412  -5.619  -0.838  0.00  0.00    -0.115 C 
ATOM      5  C   UNL     1     -10.390  -5.394  -0.002  0.00  0.00    +0.025 C 
BRANCH   5   6
ATOM      6  C   UNL     1     -11.781  -5.908  -0.248  0.00  0.00    +0.040 C 
BRANCH   6   7
ATOM      7  C   UNL     1     -12.924  -5.068   0.347  0.00  0.00    +0.035 C 
BRANCH   7   8
ATOM      8  C   UNL     1     -14.321  -5.603   0.063  0.00  0.00    -0.076 C 
ATOM      9  C   UNL     1     -14.620  -6.316  -1.054  0.00  0.00    +0.007 C 
BRANCH   8  10
ATOM     10  C   UNL     1     -15.381  -5.299   1.108  0.00  0.00    +0.030 C 
BRANCH  10  11
ATOM     11  C   UNL     1     -15.614  -3.800   1.352  0.00  0.00    +0.004 C 
BRANCH  11  12
ATOM     12  C   UNL     1     -16.089  -3.021   0.127  0.00  0.00    +0.000 C 
BRANCH  12  13
ATOM     13  C   UNL     1     -16.275  -1.550   0.513  0.00  0.00    -0.000 C 
BRANCH  13  14
ATOM     14  C   UNL     1     -16.744  -0.699  -0.661  0.00  0.00    -0.003 C 
ATOM     15  C   UNL     1     -16.919   0.753  -0.243  0.00  0.00    +0.004 C 
ENDBRANCH  13  14
ENDBRANCH  12  13
ENDBRANCH  11  12
ENDBRANCH  10  11
ENDBRANCH   8  10
ENDBRANCH   7   8
ENDBRANCH   6   7
ENDBRANCH   5   6
ENDBRANCH   2   3
BRANCH   1  16
ATOM     16  C   UNL     1      -4.603  -4.353  -1.188  0.00  0.00    +0.075 C 
ATOM     17  C   UNL     1      -3.618  -5.254  -1.342  0.00  0.00    +0.043 C 
BRANCH  16  18
ATOM     18  N   UNL     1      -4.491  -3.048  -0.798  0.00  0.00    -0.314 N 
ATOM     19  H   UNL     1      -5.319  -2.642  -0.377  0.00  0.00    +0.152 HD
BRANCH  18  21
ATOM     20  C   UNL     1      -3.301  -0.940  -0.582  0.00  0.00    +0.019 C 
ATOM     21  C   UNL     1      -3.414  -2.199  -0.983  0.00  0.00    +0.073 C 
BRANCH  20  29
ATOM     22  C   UNL     1      -1.298   0.151  -2.169  0.00  0.00    +0.030 C 
ATOM     23  C   UNL     1       0.109  -0.095  -2.712  0.00  0.00    +0.013 C 
ATOM     24  C   UNL     1       0.397   1.299  -3.398  0.00  0.00    +0.031 C 
ATOM     25  C   UNL     1      -0.360   2.251  -2.486  0.00  0.00    -0.069 C 
ATOM     26  C   UNL     1      -0.842   3.469  -2.730  0.00  0.00    +0.008 C 
ATOM     27  C   UNL     1      -0.774   1.420  -1.348  0.00  0.00    +0.045 C 
ATOM     28  C   UNL     1      -2.055   1.296  -0.620  0.00  0.00    -0.015 C 
ATOM     29  C   UNL     1      -2.179  -0.013  -0.952  0.00  0.00    -0.046 C 
ENDBRANCH  20  29
ENDBRANCH  18  21
ENDBRANCH  16  18
ENDBRANCH   1  16
TORSDOF 13
