REMARK  Name = 
REMARK  4 active torsions:
REMARK  status: ('A' for Active; 'I' for Inactive)
REMARK    1  A    between atoms: C_5  and  C_6
REMARK    2  A    between atoms: C_7  and  C_10
REMARK    3  A    between atoms: C_10  and  C_11
REMARK    4  A    between atoms: C_11  and  N_12
REMARK                            x       y       z     vdW  Elec       q    Type
REMARK                         _______ _______ _______ _____ _____    ______ ____
ROOT
ATOM      1  C   UNL     1       1.996   0.632   0.046  0.00  0.00    +0.001 C 
ATOM      2  C   UNL     1       1.080   1.610  -0.085  0.00  0.00    -0.017 C 
ATOM      3  C   UNL     1      -0.257   1.090   0.351  0.00  0.00    +0.060 C 
ATOM      4  C   UNL     1       0.024  -0.378   0.464  0.00  0.00    +0.014 C 
ATOM      5  C   UNL     1       1.340  -0.616   0.411  0.00  0.00    -0.033 C 
ATOM      6  C   UNL     1       2.064  -1.909   0.460  0.00  0.00    +0.045 C 
ATOM      7  C   UNL     1      -1.488   1.111  -0.560  0.00  0.00    +0.020 C 
ATOM      8  C   UNL     1      -2.097  -0.321  -0.445  0.00  0.00    +0.105 C 
ATOM      9  N   UNL     1      -1.085  -1.149   0.240  0.00  0.00    -0.346 N 
ATOM     10  H   UNL     1      -1.441  -1.532   1.117  0.00  0.00    +0.146 HD
ENDROOT
BRANCH   7  11
ATOM     11  C   UNL     1      -2.507   2.197  -0.140  0.00  0.00    +0.027 C 
BRANCH  11  12
ATOM     12  C   UNL     1      -1.884   3.596  -0.165  0.00  0.00    +0.123 C 
BRANCH  12  13
ATOM     13  N   UNL     1      -2.817   4.670   0.193  0.00  0.00    -0.341 N 
ATOM     14  C   UNL     1      -2.633   5.552   1.279  0.00  0.00    +0.042 A 
ATOM     15  C   UNL     1      -3.979   5.935   1.405  0.00  0.00    +0.028 A 
ATOM     16  C   UNL     1      -4.451   5.966   0.041  0.00  0.00    +0.028 A 
ATOM     17  C   UNL     1      -3.312   5.629  -0.714  0.00  0.00    +0.042 A 
ATOM     18  C   UNL     1      -2.176   6.464  -0.712  0.00  0.00    +0.028 A 
ATOM     19  C   UNL     1      -1.710   6.410   0.653  0.00  0.00    +0.028 A 
ENDBRANCH  12  13
ENDBRANCH  11  12
ENDBRANCH   7  11
TORSDOF 3
