REMARK  Name = 
REMARK  13 active torsions:
REMARK  status: ('A' for Active; 'I' for Inactive)
REMARK    1  A    between atoms: C_9  and  C_14
REMARK    2  A    between atoms: C_15  and  N_16
REMARK    3  A    between atoms: C_17  and  C_18
REMARK    4  A    between atoms: C_19  and  C_20
REMARK    5  A    between atoms: C_19  and  C_26
REMARK    6  A    between atoms: C_21  and  C_22
REMARK    7  A    between atoms: C_23  and  C_24
REMARK    8  A    between atoms: C_27  and  C_28
REMARK    9  A    between atoms: C_28  and  C_29
REMARK   10  A    between atoms: C_29  and  N_30
REMARK   11  A    between atoms: N_30  and  C_31
REMARK   12  A    between atoms: C_31  and  N_32
REMARK   13  A    between atoms: N_32  and  C_33
REMARK                            x       y       z     vdW  Elec       q    Type
REMARK                         _______ _______ _______ _____ _____    ______ ____
ROOT
ATOM      1  N   UNL     1       7.843  -7.372  -2.367  0.00  0.00    -0.283 NA
ATOM      2  C   UNL     1       8.190  -8.273  -3.184  0.00  0.00    +0.106 C 
ENDROOT
BRANCH   1  17
ATOM      3  C   UNL     1       6.650  -5.546  -0.585  0.00  0.00    +0.060 C 
ATOM      4  C   UNL     1       6.519  -5.311  -2.100  0.00  0.00    -0.039 C 
ATOM      5  C   UNL     1       5.981  -4.331  -2.857  0.00  0.00    +0.025 C 
ATOM      6  C   UNL     1       6.661  -4.537  -4.213  0.00  0.00    +0.042 C 
ATOM      7  N   UNL     1       6.363  -4.100  -5.379  0.00  0.00    -0.303 NA
ATOM      8  C   UNL     1       7.946  -5.318  -3.994  0.00  0.00    +0.088 C 
ATOM      9  C   UNL     1       8.925  -4.247  -3.422  0.00  0.00    -0.019 C 
ATOM     10  C   UNL     1       8.679  -2.912  -3.535  0.00  0.00    -0.023 C 
ATOM     11  C   UNL     1       8.957  -1.746  -2.584  0.00  0.00    +0.031 C 
ATOM     12  C   UNL     1       8.531  -2.084  -1.169  0.00  0.00    -0.020 C 
ATOM     13  C   UNL     1       9.103  -3.055  -0.427  0.00  0.00    -0.004 C 
ATOM     14  C   UNL     1       8.189  -3.837   0.398  0.00  0.00    -0.004 C 
ATOM     15  C   UNL     1       7.999  -5.091  -0.062  0.00  0.00    -0.022 C 
ATOM     16  C   UNL     1       8.057  -0.563  -3.031  0.00  0.00    +0.016 C 
ATOM     17  C   UNL     1       7.182  -6.265  -3.052  0.00  0.00    +0.144 C 
ATOM     18  H   UNL     1       5.518  -3.505  -5.358  0.00  0.00    +0.186 HD
ENDBRANCH   1  17
BRANCH   2  19
ATOM     19  C   UNL     1       8.358  -9.666  -2.744  0.00  0.00    +0.027 C 
ATOM     20  C   UNL     1       8.230 -10.727  -3.549  0.00  0.00    -0.024 C 
BRANCH  20  21
ATOM     21  C   UNL     1       7.752 -10.613  -4.948  0.00  0.00    +0.008 C 
ATOM     22  C   UNL     1       8.114 -11.436  -5.951  0.00  0.00    +0.001 C 
BRANCH  22  23
ATOM     23  C   UNL     1       7.723 -11.297  -7.341  0.00  0.00    +0.000 C 
ATOM     24  C   UNL     1       8.164 -12.170  -8.261  0.00  0.00    -0.001 C 
BRANCH  24  25
ATOM     25  C   UNL     1       7.902 -12.084  -9.681  0.00  0.00    -0.008 C 
ATOM     26  C   UNL     1       8.376 -12.991 -10.547  0.00  0.00    +0.008 C 
ENDBRANCH  24  25
ENDBRANCH  22  23
ENDBRANCH  20  21
BRANCH  20  27
ATOM     27  C   UNL     1       8.668 -11.968  -2.930  0.00  0.00    +0.004 C 
ATOM     28  C   UNL     1       8.172 -13.182  -3.150  0.00  0.00    -0.025 C 
BRANCH  28  29
ATOM     29  C   UNL     1       8.809 -14.420  -2.594  0.00  0.00    +0.042 C 
BRANCH  29  30
ATOM     30  C   UNL     1       9.288 -15.266  -3.772  0.00  0.00    +0.086 C 
BRANCH  30  31
ATOM     31  N   UNL     1       9.929 -16.504  -3.348  0.00  0.00    -0.304 NA
ATOM     32  H   UNL     1       9.278 -17.068  -2.813  0.00  0.00    +0.123 HD
BRANCH  31  33
ATOM     33  C   UNL     1      10.354 -17.239  -4.517  0.00  0.00    +0.165 C 
BRANCH  33  34
ATOM     34  N   UNL     1      10.968 -18.446  -4.026  0.00  0.00    -0.307 NA
ATOM     35  C   UNL     1      11.429 -19.262  -5.140  0.00  0.00    +0.102 C 
ATOM     36  H   UNL     1      10.294 -18.965  -3.473  0.00  0.00    +0.123 HD
ENDBRANCH  33  34
ENDBRANCH  31  33
ENDBRANCH  30  31
ENDBRANCH  29  30
ENDBRANCH  28  29
ENDBRANCH  20  27
ENDBRANCH   2  19
TORSDOF 11
