REMARK  Name = 
REMARK  12 active torsions:
REMARK  status: ('A' for Active; 'I' for Inactive)
REMARK    1  A    between atoms: C_1  and  C_2
REMARK    2  A    between atoms: C_5  and  C_8
REMARK    3  A    between atoms: C_9  and  C_10
REMARK    4  A    between atoms: C_10  and  C_11
REMARK    5  A    between atoms: C_10  and  N_12
REMARK    6  A    between atoms: N_12  and  C_13
REMARK    7  A    between atoms: N_12  and  C_15
REMARK    8  A    between atoms: C_15  and  C_16
REMARK    9  A    between atoms: C_16  and  C_17
REMARK   10  A    between atoms: C_16  and  C_18
REMARK   11  A    between atoms: C_16  and  O_19
REMARK   12  A    between atoms: O_19  and  C_20
REMARK                            x       y       z     vdW  Elec       q    Type
REMARK                         _______ _______ _______ _____ _____    ______ ____
ROOT
ATOM      1  C   UNL     1      -5.400   1.152  -0.076  0.00  0.00    +0.093 C 
ATOM      2  C   UNL     1      -6.044   0.565   1.182  0.00  0.00    +0.032 C 
ENDROOT
BRANCH   1   4
ATOM      3  C   UNL     1      -3.263   0.240  -1.091  0.00  0.00    +0.005 C 
ATOM      4  C   UNL     1      -3.927   0.843  -0.091  0.00  0.00    -0.005 C 
BRANCH   3   9
ATOM      5  C   UNL     1       2.259  -1.417  -0.543  0.00  0.00    +0.044 C 
ATOM      6  C   UNL     1       0.832  -0.986  -0.689  0.00  0.00    -0.050 A 
ATOM      7  C   UNL     1      -0.013  -0.963   0.423  0.00  0.00    +0.004 A 
ATOM      8  C   UNL     1      -1.341  -0.566   0.289  0.00  0.00    +0.008 A 
ATOM      9  C   UNL     1      -1.855  -0.157  -0.953  0.00  0.00    -0.025 A 
ATOM     10  C   UNL     1      -1.013  -0.200  -2.070  0.00  0.00    +0.008 A 
ATOM     11  C   UNL     1       0.321  -0.608  -1.937  0.00  0.00    +0.004 A 
ENDBRANCH   3   9
ENDBRANCH   1   4
BRANCH   1  12
ATOM     12  N   UNL     1      -5.667   2.615  -0.177  0.00  0.00    -0.327 N 
BRANCH  12  13
ATOM     13  C   UNL     1      -4.868   3.571   0.447  0.00  0.00    +0.063 C 
ATOM     14  C   UNL     1      -4.992   4.897   0.552  0.00  0.00    +0.024 C 
ENDBRANCH  12  13
BRANCH  12  15
ATOM     15  C   UNL     1      -7.012   2.949  -0.739  0.00  0.00    +0.139 C 
BRANCH  15  16
ATOM     16  C   UNL     1      -7.174   2.656  -2.270  0.00  0.00    +0.079 C 
ATOM     17  C   UNL     1      -8.505   3.275  -2.732  0.00  0.00    +0.043 C 
ATOM     18  C   UNL     1      -5.990   3.260  -3.038  0.00  0.00    +0.043 C 
BRANCH  16  19
ATOM     19  O   UNL     1      -7.269   1.227  -2.451  0.00  0.00    -0.376 OA
ATOM     20  C   UNL     1      -7.326   0.740  -3.781  0.00  0.00    +0.194 C 
ENDBRANCH  16  19
ENDBRANCH  15  16
ENDBRANCH  12  15
ENDBRANCH   1  12
TORSDOF 7
