REMARK  Name = 
REMARK  11 active torsions:
REMARK  status: ('A' for Active; 'I' for Inactive)
REMARK    1  A    between atoms: C_1  and  C_2
REMARK    2  A    between atoms: C_3  and  C_4
REMARK    3  A    between atoms: C_5  and  N_6
REMARK    4  A    between atoms: N_6  and  C_7
REMARK    5  A    between atoms: C_8  and  C_9
REMARK    6  A    between atoms: C_10  and  C_11
REMARK    7  A    between atoms: C_19  and  C_20
REMARK    8  A    between atoms: C_20  and  C_21
REMARK    9  A    between atoms: C_22  and  C_23
REMARK   10  A    between atoms: C_23  and  N_24
REMARK   11  A    between atoms: C_28  and  C_29
REMARK                            x       y       z     vdW  Elec       q    Type
REMARK                         _______ _______ _______ _____ _____    ______ ____
ROOT
ATOM      1  C   UNL     1      13.260  -5.639   6.313  0.00  0.00    +0.043 C 
ATOM      2  C   UNL     1      11.904  -6.262   6.640  0.00  0.00    +0.047 C 
ATOM      3  C   UNL     1      11.174  -5.070   7.266  0.00  0.00    -0.046 C 
ATOM      4  C   UNL     1       9.860  -5.065   7.517  0.00  0.00    +0.013 C 
ATOM      5  C   UNL     1      12.060  -3.899   7.178  0.00  0.00    -0.019 C 
ATOM      6  C   UNL     1      12.875  -4.222   6.157  0.00  0.00    -0.051 C 
ATOM      7  C   UNL     1      12.376  -3.377   4.997  0.00  0.00    +0.059 C 
ATOM      8  C   UNL     1      11.879  -2.149   5.741  0.00  0.00    -0.018 C 
ATOM      9  C   UNL     1      11.888  -2.464   7.053  0.00  0.00    -0.040 C 
ENDROOT
BRANCH   1  11
ATOM     10  C   UNL     1      14.105  -7.231   4.579  0.00  0.00    -0.002 C 
ATOM     11  C   UNL     1      14.250  -6.138   5.327  0.00  0.00    -0.019 C 
BRANCH  10  13
ATOM     12  C   UNL     1      14.920  -8.744   2.883  0.00  0.00    +0.071 C 
ATOM     13  C   UNL     1      15.127  -7.682   3.666  0.00  0.00    +0.015 C 
BRANCH  12  14
ATOM     14  N   UNL     1      15.743  -9.213   1.901  0.00  0.00    -0.326 N 
ATOM     15  H   UNL     1      16.585  -8.673   1.725  0.00  0.00    +0.151 HD
BRANCH  14  17
ATOM     16  C   UNL     1      16.262 -10.620   0.013  0.00  0.00    +0.015 C 
ATOM     17  C   UNL     1      15.491 -10.247   1.041  0.00  0.00    +0.071 C 
BRANCH  16  20
ATOM     18  C   UNL     1      16.471 -13.283  -2.729  0.00  0.00    +0.035 C 
ATOM     19  C   UNL     1      16.756 -12.109  -1.851  0.00  0.00    -0.030 C 
ATOM     20  C   UNL     1      15.951 -11.738  -0.844  0.00  0.00    -0.003 C 
ENDBRANCH  16  20
ENDBRANCH  14  17
ENDBRANCH  12  14
ENDBRANCH  10  13
ENDBRANCH   1  11
BRANCH   9  21
ATOM     21  C   UNL     1      12.650  -1.618   8.063  0.00  0.00    +0.062 C 
BRANCH  21  22
ATOM     22  C   UNL     1      11.891  -1.059   9.218  0.00  0.00    -0.025 C 
ATOM     23  C   UNL     1      10.585  -1.212   9.450  0.00  0.00    -0.012 C 
BRANCH  23  24
ATOM     24  C   UNL     1       9.872  -0.679  10.644  0.00  0.00    +0.143 C 
BRANCH  24  25
ATOM     25  N   UNL     1       8.864   0.241  10.192  0.00  0.00    -0.240 N 
ATOM     26  C   UNL     1       7.676   0.471  10.743  0.00  0.00    +0.332 C 
ATOM     27  O   UNL     1       6.996  -0.056  11.601  0.00  0.00    -0.250 OA
ATOM     28  N   UNL     1       7.673   1.718  10.181  0.00  0.00    -0.152 NA
ATOM     29  C   UNL     1       8.901   1.506   9.841  0.00  0.00    +0.096 C 
ATOM     30  C   UNL     1       9.951   2.342   9.251  0.00  0.00    +0.081 C 
ENDBRANCH  24  25
ENDBRANCH  23  24
ENDBRANCH  21  22
ENDBRANCH   9  21
TORSDOF 9
