REMARK  Name = 
REMARK  6 active torsions:
REMARK  status: ('A' for Active; 'I' for Inactive)
REMARK    1  A    between atoms: C_1  and  C_2
REMARK    2  A    between atoms: C_3  and  C_4
REMARK    3  A    between atoms: C_5  and  C_6
REMARK    4  A    between atoms: C_5  and  C_10
REMARK    5  A    between atoms: C_6  and  C_7
REMARK    6  A    between atoms: C_7  and  C_8
REMARK                            x       y       z     vdW  Elec       q    Type
REMARK                         _______ _______ _______ _____ _____    ______ ____
ROOT
ATOM      1  C   UNL     1       4.590  -0.718   0.932  0.00  0.00    +0.006 C 
ATOM      2  C   UNL     1       5.232  -1.470   1.846  0.00  0.00    -0.008 C 
ENDROOT
BRANCH   1   5
ATOM      3  C   UNL     1       1.047   0.167  -0.247  0.00  0.00    +0.035 C 
ATOM      4  C   UNL     1       2.540   0.112  -0.155  0.00  0.00    -0.030 C 
ATOM      5  C   UNL     1       3.154  -0.605   0.799  0.00  0.00    -0.004 C 
ENDBRANCH   1   5
BRANCH   2   6
ATOM      6  C   UNL     1       6.722  -1.483   1.749  0.00  0.00    +0.254 C 
ATOM      7  O   UNL     1       7.420  -2.292   2.348  0.00  0.00    -0.296 OA
ENDBRANCH   2   6
BRANCH   2   8
ATOM      8  C   UNL     1       4.628  -2.345   2.923  0.00  0.00    +0.042 C 
BRANCH   8   9
ATOM      9  C   UNL     1       4.998  -1.878   4.342  0.00  0.00    +0.031 C 
BRANCH   9  10
ATOM     10  C   UNL     1       4.446  -2.684   5.491  0.00  0.00    -0.034 C 
ATOM     11  C   UNL     1       3.663  -3.768   5.430  0.00  0.00    +0.004 C 
ENDBRANCH   9  10
ENDBRANCH   8   9
ENDBRANCH   2   8
TORSDOF 5
