REMARK  Name = 
REMARK  4 active torsions:
REMARK  status: ('A' for Active; 'I' for Inactive)
REMARK    1  A    between atoms: C_1  and  C_2
REMARK    2  A    between atoms: C_2  and  C_3
REMARK    3  A    between atoms: C_8  and  C_9
REMARK    4  A    between atoms: C_8  and  C_10
REMARK                            x       y       z     vdW  Elec       q    Type
REMARK                         _______ _______ _______ _____ _____    ______ ____
ROOT
ATOM      1  C   UNL     1       3.027   1.431   0.747  0.00  0.00    +0.074 C 
ATOM      2  C   UNL     1       4.397   1.358   1.349  0.00  0.00    +0.124 C 
ATOM      3  C   UNL     1       4.487   2.824   0.962  0.00  0.00    +0.219 C 
ATOM      4  O   UNL     1       5.325   3.694   1.013  0.00  0.00    -0.275 OA
ATOM      5  N   UNL     1       3.252   2.798   0.374  0.00  0.00    -0.279 N 
ATOM      6  C   UNL     1       2.038   2.551   1.091  0.00  0.00    +0.112 C 
ATOM      7  C   UNL     1       0.834   2.902   0.245  0.00  0.00    +0.042 C 
ENDROOT
BRANCH   1   9
ATOM      8  C   UNL     1       2.561  -0.999   0.578  0.00  0.00    +0.006 C 
ATOM      9  C   UNL     1       2.627   0.328  -0.180  0.00  0.00    +0.025 C 
ENDBRANCH   1   9
BRANCH   6  10
ATOM     10  C   UNL     1       1.916   2.827   2.555  0.00  0.00    +0.251 C 
ATOM     11  O   UNL     1       1.567   1.952   3.331  0.00  0.00    -0.299 OA
ENDBRANCH   6  10
TORSDOF 2
