REMARK  Name = 
REMARK  1 active torsions:
REMARK  status: ('A' for Active; 'I' for Inactive)
REMARK    1  A    between atoms: C_1  and  N_2
REMARK                            x       y       z     vdW  Elec       q    Type
REMARK                         _______ _______ _______ _____ _____    ______ ____
ROOT
ATOM      1  C   UNL     1       0.918  -0.082   0.097  0.00  0.00    +0.135 C 
ATOM      2  N   UNL     1       2.382  -0.017   0.098  0.00  0.00    -0.310 N 
ATOM      3  C   UNL     1       3.126  -1.199   0.097  0.00  0.00    +0.075 C 
ATOM      4  C   UNL     1       4.467  -1.238   0.096  0.00  0.00    +0.015 C 
ATOM      5  C   UNL     1       5.195   0.010   0.096  0.00  0.00    +0.003 C 
ATOM      6  C   UNL     1       4.529   1.178   0.098  0.00  0.00    +0.023 C 
ATOM      7  C   UNL     1       3.061   1.223   0.100  0.00  0.00    +0.026 C 
ATOM      8  C   UNL     1       2.471   2.431   0.105  0.00  0.00    +0.033 C 
ENDROOT
TORSDOF 0
