REMARK  Name = 
REMARK  4 active torsions:
REMARK  status: ('A' for Active; 'I' for Inactive)
REMARK    1  A    between atoms: C_2  and  C_3
REMARK    2  A    between atoms: C_4  and  C_5
REMARK    3  A    between atoms: C_6  and  C_7
REMARK    4  A    between atoms: C_12  and  N_13
REMARK                            x       y       z     vdW  Elec       q    Type
REMARK                         _______ _______ _______ _____ _____    ______ ____
ROOT
ATOM      1  C   UNL     1       8.632  -3.172  -1.808  0.00  0.00    +0.023 C 
ATOM      2  C   UNL     1       9.933  -3.481  -2.119  0.00  0.00    +0.030 C 
ATOM      3  N   UNL     1      11.144  -2.756  -2.185  0.00  0.00    -0.328 N 
ATOM      4  C   UNL     1      12.604  -3.130  -2.075  0.00  0.00    +0.208 C 
ATOM      5  N   UNL     1      13.416  -4.027  -2.964  0.00  0.00    -0.310 N 
ATOM      6  C   UNL     1      13.574  -5.409  -2.952  0.00  0.00    +0.146 C 
ATOM      7  C   UNL     1      10.063  -4.854  -2.572  0.00  0.00    +0.043 C 
ATOM      8  C   UNL     1      10.811  -5.722  -1.883  0.00  0.00    +0.123 C 
ATOM      9  N   UNL     1      11.517  -6.706  -2.526  0.00  0.00    -0.210 NA
ATOM     10  C   UNL     1      12.543  -6.181  -2.789  0.00  0.00    +0.026 C 
ATOM     11  H   UNL     1      11.005  -1.823  -1.800  0.00  0.00    +0.148 HD
ATOM     12  H   UNL     1      14.378  -3.675  -2.922  0.00  0.00    +0.149 HD
ENDROOT
BRANCH   6  13
ATOM     13  N   UNL     1      14.787  -6.062  -3.082  0.00  0.00    -0.339 N 
ATOM     14  H   UNL     1      15.481  -5.579  -3.642  0.00  0.00    +0.144 HD
ATOM     15  H   UNL     1      14.682  -7.032  -3.367  0.00  0.00    +0.144 HD
ENDBRANCH   6  13
BRANCH   1  17
ATOM     16  C   UNL     1       6.423  -2.185  -1.208  0.00  0.00    +0.000 C 
ATOM     17  C   UNL     1       7.778  -2.058  -1.321  0.00  0.00    +0.002 C 
BRANCH  16  19
ATOM     18  C   UNL     1       4.088  -1.402  -0.607  0.00  0.00    -0.001 C 
ATOM     19  C   UNL     1       5.427  -1.224  -0.684  0.00  0.00    -0.000 C 
BRANCH  18  21
ATOM     20  C   UNL     1       1.831  -0.540   0.056  0.00  0.00    +0.008 C 
ATOM     21  C   UNL     1       3.166  -0.420  -0.052  0.00  0.00    -0.008 C 
ENDBRANCH  18  21
ENDBRANCH  16  19
ENDBRANCH   1  17
TORSDOF 4
