REMARK  Name = 
REMARK  3 active torsions:
REMARK  status: ('A' for Active; 'I' for Inactive)
REMARK    1  A    between atoms: C_1  and  C_2
REMARK    2  A    between atoms: N_3  and  C_4
REMARK    3  A    between atoms: C_5  and  C_6
REMARK                            x       y       z     vdW  Elec       q    Type
REMARK                         _______ _______ _______ _____ _____    ______ ____
ROOT
ATOM      1  C   UNL     1       1.199  -0.067  -0.067  0.00  0.00    +0.057 C 
ATOM      2  C   UNL     1       2.707  -0.089  -0.060  0.00  0.00    +0.091 C 
ATOM      3  N   UNL     1       3.356  -1.164   0.241  0.00  0.00    -0.209 NA
ENDROOT
BRANCH   3   4
ATOM      4  C   UNL     1       4.704  -1.127   0.231  0.00  0.00    +0.034 C 
ATOM      5  C   UNL     1       6.008  -1.127   0.231  0.00  0.00    -0.081 C 
ATOM      6  C   UNL     1       7.528  -1.127   0.231  0.00  0.00    +0.108 C 
ENDBRANCH   3   4
TORSDOF 1
