REMARK  Name = 
REMARK  13 active torsions:
REMARK  status: ('A' for Active; 'I' for Inactive)
REMARK    1  A    between atoms: C_1  and  C_2
REMARK    2  A    between atoms: C_2  and  O_3
REMARK    3  A    between atoms: O_3  and  C_4
REMARK    4  A    between atoms: C_4  and  C_6
REMARK    5  A    between atoms: P_10  and  C_11
REMARK    6  A    between atoms: C_12  and  C_13
REMARK    7  A    between atoms: C_14  and  C_15
REMARK    8  A    between atoms: C_16  and  C_17
REMARK    9  A    between atoms: C_18  and  C_19
REMARK   10  A    between atoms: C_19  and  C_20
REMARK   11  A    between atoms: C_24  and  C_25
REMARK   12  A    between atoms: C_25  and  C_26
REMARK   13  A    between atoms: C_31  and  C_32
REMARK                            x       y       z     vdW  Elec       q    Type
REMARK                         _______ _______ _______ _____ _____    ______ ____
ROOT
ATOM      1  C   UNL     1      -1.439   2.320   1.960  0.00  0.00    -0.000 C 
ATOM      2  C   UNL     1      -1.857   3.500   1.468  0.00  0.00    -0.000 C 
ENDROOT
BRANCH   1   4
ATOM      3  C   UNL     1       0.342   0.925   2.910  0.00  0.00    +0.000 C 
ATOM      4  C   UNL     1      -0.090   2.096   2.418  0.00  0.00    +0.000 C 
BRANCH   3   6
ATOM      5  C   UNL     1       2.208  -0.400   3.848  0.00  0.00    +0.008 C 
ATOM      6  C   UNL     1       1.710   0.741   3.345  0.00  0.00    +0.001 C 
BRANCH   5  11
ATOM      7  C   UNL     1       4.601  -1.948   3.541  0.00  0.00    +0.135 C 
ATOM      8  C   UNL     1       4.141  -2.819   4.752  0.00  0.00    +0.055 C 
ATOM      9  C   UNL     1       3.975  -1.588   5.638  0.00  0.00    -0.047 C 
ATOM     10  C   UNL     1       3.891  -1.468   6.967  0.00  0.00    +0.013 C 
ATOM     11  P   UNL     1       3.968  -0.393   4.303  0.00  0.00    -0.042 P 
BRANCH   7  12
ATOM     12  C   UNL     1       4.156  -2.389   2.132  0.00  0.00    +0.315 C 
ATOM     13  O   UNL     1       3.154  -3.056   1.870  0.00  0.00    -0.250 OA
BRANCH  12  14
ATOM     14  O   UNL     1       5.106  -2.079   1.193  0.00  0.00    -0.464 OA
BRANCH  14  16
ATOM     15  C   UNL     1       5.998  -4.133   0.375  0.00  0.00    +0.048 C 
ATOM     16  C   UNL     1       5.140  -2.926   0.034  0.00  0.00    +0.229 C 
ENDBRANCH  14  16
ENDBRANCH  12  14
ENDBRANCH   7  12
ENDBRANCH   5  11
ENDBRANCH   3   6
ENDBRANCH   1   4
BRANCH   2  17
ATOM     17  C   UNL     1      -3.217   3.705   1.040  0.00  0.00    -0.003 C 
ATOM     18  C   UNL     1      -3.671   4.865   0.530  0.00  0.00    -0.016 C 
BRANCH  18  19
ATOM     19  C   UNL     1      -5.101   5.087   0.074  0.00  0.00    +0.007 C 
ATOM     20  C   UNL     1      -5.428   4.109  -1.079  0.00  0.00    +0.020 C 
ATOM     21  C   UNL     1      -6.099   4.864   1.194  0.00  0.00    -0.020 C 
ATOM     22  C   UNL     1      -7.130   5.712   1.126  0.00  0.00    -0.030 C 
ATOM     23  C   UNL     1      -6.986   6.644  -0.030  0.00  0.00    +0.031 C 
ATOM     24  C   UNL     1      -5.471   6.566  -0.344  0.00  0.00    +0.007 C 
BRANCH  24  25
ATOM     25  C   UNL     1      -4.642   7.661   0.404  0.00  0.00    +0.013 C 
BRANCH  25  26
ATOM     26  C   UNL     1      -5.030   9.140   0.149  0.00  0.00    +0.019 C 
ATOM     27  C   UNL     1      -4.821   9.542  -1.339  0.00  0.00    +0.035 C 
ATOM     28  C   UNL     1      -3.582  10.343  -1.625  0.00  0.00    -0.026 C 
ATOM     29  C   UNL     1      -2.900  10.967  -0.658  0.00  0.00    -0.004 C 
ATOM     30  C   UNL     1      -3.329  10.906   0.715  0.00  0.00    -0.001 C 
ATOM     31  C   UNL     1      -4.289  10.060   1.127  0.00  0.00    -0.069 C 
ATOM     32  C   UNL     1      -4.707  10.002   2.572  0.00  0.00    +0.039 C 
ENDBRANCH  25  26
ENDBRANCH  24  25
ENDBRANCH  18  19
ENDBRANCH   2  17
TORSDOF 10
