REMARK  Name = 
REMARK  1 active torsions:
REMARK  status: ('A' for Active; 'I' for Inactive)
REMARK    1  A    between atoms: C_4  and  C_5
REMARK                            x       y       z     vdW  Elec       q    Type
REMARK                         _______ _______ _______ _____ _____    ______ ____
ROOT
ATOM      1  C   UNL     1       0.310   1.042  -0.033  0.00  0.00    +0.034 C 
ATOM      2  C   UNL     1       1.032  -0.317   0.038  0.00  0.00    +0.031 C 
ATOM      3  C   UNL     1      -0.345  -0.938  -0.012  0.00  0.00    -0.028 C 
ATOM      4  C   UNL     1      -0.984   0.249  -0.000  0.00  0.00    -0.076 C 
ATOM      5  C   UNL     1      -2.440   0.651  -0.004  0.00  0.00    +0.039 C 
ENDROOT
TORSDOF 0
