REMARK  Name = 
REMARK  4 active torsions:
REMARK  status: ('A' for Active; 'I' for Inactive)
REMARK    1  A    between atoms: N_6  and  C_7
REMARK    2  A    between atoms: C_8  and  C_9
REMARK    3  A    between atoms: C_9  and  C_10
REMARK    4  A    between atoms: N_12  and  C_13
REMARK                            x       y       z     vdW  Elec       q    Type
REMARK                         _______ _______ _______ _____ _____    ______ ____
ROOT
ATOM      1  C   UNL     1      -1.387   2.227   1.077  0.00  0.00    -0.001 C 
ATOM      2  C   UNL     1      -1.959   3.138   1.813  0.00  0.00    -0.073 C 
ENDROOT
BRANCH   1   8
ATOM      3  C   UNL     1       0.334   0.684   0.072  0.00  0.00    +0.087 C 
ATOM      4  C   UNL     1       1.535  -0.139   0.486  0.00  0.00    +0.024 C 
ATOM      5  C   UNL     1       0.972  -1.176  -0.555  0.00  0.00    +0.009 C 
ATOM      6  C   UNL     1      -0.391  -0.847   0.022  0.00  0.00    +0.028 C 
ATOM      7  C   UNL     1      -1.540   0.105  -0.267  0.00  0.00    +0.120 C 
ATOM      8  N   UNL     1      -0.882   0.923   0.743  0.00  0.00    -0.287 N 
ENDBRANCH   1   8
BRANCH   2   9
ATOM      9  C   UNL     1      -2.626   4.201   2.671  0.00  0.00    +0.186 C 
BRANCH   9  10
ATOM     10  C   UNL     1      -1.959   5.549   2.444  0.00  0.00    +0.229 C 
ATOM     11  O   UNL     1      -2.597   6.532   2.070  0.00  0.00    -0.274 OA
ATOM     12  N   UNL     1      -0.599   5.567   2.732  0.00  0.00    -0.292 N 
ATOM     13  H   UNL     1      -0.156   4.708   3.039  0.00  0.00    +0.154 HD
BRANCH  12  14
ATOM     14  C   UNL     1       0.189   6.676   2.557  0.00  0.00    +0.067 C 
ATOM     15  C   UNL     1       1.494   6.673   2.821  0.00  0.00    +0.025 C 
ENDBRANCH  12  14
ENDBRANCH   9  10
ENDBRANCH   2   9
TORSDOF 4
