REMARK  Name = 
REMARK  14 active torsions:
REMARK  status: ('A' for Active; 'I' for Inactive)
REMARK    1  A    between atoms: C_7  and  C_8
REMARK    2  A    between atoms: C_7  and  C_14
REMARK    3  A    between atoms: C_8  and  C_10
REMARK    4  A    between atoms: C_10  and  C_12
REMARK    5  A    between atoms: C_12  and  N_13
REMARK    6  A    between atoms: C_15  and  N_16
REMARK    7  A    between atoms: C_17  and  C_18
REMARK    8  A    between atoms: C_18  and  C_19
REMARK    9  A    between atoms: C_19  and  C_20
REMARK   10  A    between atoms: C_20  and  C_21
REMARK   11  A    between atoms: C_21  and  C_22
REMARK   12  A    between atoms: C_22  and  C_23
REMARK   13  A    between atoms: C_24  and  C_25
REMARK   14  A    between atoms: C_25  and  C_26
REMARK                            x       y       z     vdW  Elec       q    Type
REMARK                         _______ _______ _______ _____ _____    ______ ____
ROOT
ATOM      1  C   UNL     1       1.884  -0.051   0.376  0.00  0.00    +0.010 C 
ATOM      2  C   UNL     1       1.192  -1.177   0.107  0.00  0.00    -0.047 C 
ATOM      3  C   UNL     1       1.873  -2.518   0.259  0.00  0.00    +0.034 C 
ATOM      4  C   UNL     1       0.964  -3.549   0.912  0.00  0.00    +0.019 C 
ATOM      5  C   UNL     1      -0.381  -3.609   0.203  0.00  0.00    +0.082 C 
ATOM      6  N   UNL     1      -1.052  -2.311   0.215  0.00  0.00    -0.299 NA
ATOM      7  C   UNL     1      -0.261  -1.212  -0.400  0.00  0.00    +0.103 C 
ATOM      8  H   UNL     1      -1.251  -2.062   1.182  0.00  0.00    +0.123 HD
ENDROOT
BRANCH   7   9
ATOM      9  C   UNL     1      -1.060   0.146   0.005  0.00  0.00    +0.064 C 
ATOM     10  N   UNL     1      -1.525   0.984  -0.886  0.00  0.00    -0.301 NA
ATOM     11  H   UNL     1      -1.294   0.678  -1.836  0.00  0.00    +0.186 HD
BRANCH   9  12
ATOM     12  C   UNL     1      -1.327   0.501   1.467  0.00  0.00    -0.018 C 
ATOM     13  C   UNL     1      -0.556   0.098   2.494  0.00  0.00    +0.015 C 
BRANCH  12  14
ATOM     14  C   UNL     1      -2.540   1.378   1.690  0.00  0.00    +0.114 C 
BRANCH  14  15
ATOM     15  N   UNL     1      -3.125   1.212   3.029  0.00  0.00    -0.326 NA
ATOM     16  H   UNL     1      -3.451   0.250   3.112  0.00  0.00    +0.119 HD
ATOM     17  H   UNL     1      -3.956   1.796   3.094  0.00  0.00    +0.119 HD
ENDBRANCH  14  15
ENDBRANCH  12  14
ENDBRANCH   9  12
ENDBRANCH   7   9
BRANCH   7  18
ATOM     18  C   UNL     1      -0.231  -1.404  -1.916  0.00  0.00    +0.025 C 
ATOM     19  C   UNL     1      -1.276  -1.607  -2.734  0.00  0.00    +0.108 C 
BRANCH  19  20
ATOM     20  N   UNL     1      -1.087  -1.751  -4.083  0.00  0.00    -0.268 NA
ATOM     21  C   UNL     1      -2.153  -1.797  -4.814  0.00  0.00    +0.083 C 
BRANCH  21  22
ATOM     22  C   UNL     1      -2.036  -1.957  -6.311  0.00  0.00    +0.047 C 
BRANCH  22  23
ATOM     23  C   UNL     1      -2.657  -0.773  -7.050  0.00  0.00    +0.006 C 
BRANCH  23  24
ATOM     24  C   UNL     1      -1.935   0.541  -6.745  0.00  0.00    +0.001 C 
BRANCH  24  25
ATOM     25  C   UNL     1      -2.537   1.717  -7.516  0.00  0.00    +0.013 C 
BRANCH  25  26
ATOM     26  C   UNL     1      -1.813   3.013  -7.157  0.00  0.00    +0.089 C 
BRANCH  26  27
ATOM     27  C   UNL     1      -2.375   4.162  -7.868  0.00  0.00    -0.102 C 
ATOM     28  C   UNL     1      -2.821   5.135  -8.418  0.00  0.00    -0.102 C 
BRANCH  28  29
ATOM     29  C   UNL     1      -3.337   6.351  -9.059  0.00  0.00    +0.085 C 
ATOM     30  C   UNL     1      -3.450   7.478  -8.048  0.00  0.00    +0.017 C 
ENDBRANCH  28  29
ENDBRANCH  26  27
ENDBRANCH  25  26
ENDBRANCH  24  25
ENDBRANCH  23  24
ENDBRANCH  22  23
ENDBRANCH  21  22
ENDBRANCH  19  20
ENDBRANCH   7  18
TORSDOF 13
