REMARK  Name = 
REMARK  8 active torsions:
REMARK  status: ('A' for Active; 'I' for Inactive)
REMARK    1  A    between atoms: C_5  and  C_10
REMARK    2  A    between atoms: C_6  and  C_7
REMARK    3  A    between atoms: C_7  and  C_8
REMARK    4  A    between atoms: C_7  and  C_9
REMARK    5  A    between atoms: C_11  and  N_12
REMARK    6  A    between atoms: C_11  and  C_19
REMARK    7  A    between atoms: C_13  and  N_15
REMARK    8  A    between atoms: C_16  and  C_17
REMARK                            x       y       z     vdW  Elec       q    Type
REMARK                         _______ _______ _______ _____ _____    ______ ____
ROOT
ATOM      1  C   UNL     1       0.555  -1.609  -1.562  0.00  0.00    +0.004 C 
ATOM      2  C   UNL     1       0.905  -2.812  -2.081  0.00  0.00    +0.039 C 
ATOM      3  C   UNL     1       0.679  -2.976  -3.560  0.00  0.00    +0.065 C 
ENDROOT
BRANCH   1   8
ATOM      4  C   UNL     1      -1.320   0.528   0.074  0.00  0.00    -0.022 C 
ATOM      5  C   UNL     1      -0.504   1.556  -0.207  0.00  0.00    -0.004 C 
ATOM      6  C   UNL     1       0.928   1.401  -0.164  0.00  0.00    -0.004 C 
ATOM      7  C   UNL     1       1.489   0.182  -0.145  0.00  0.00    -0.019 C 
ATOM      8  C   UNL     1       0.661  -1.093  -0.136  0.00  0.00    +0.043 C 
ATOM      9  C   UNL     1      -0.784  -0.853   0.445  0.00  0.00    +0.025 C 
BRANCH   9  10
ATOM     10  C   UNL     1      -0.942  -1.067   1.985  0.00  0.00    -0.009 C 
ATOM     11  C   UNL     1      -0.568  -2.489   2.422  0.00  0.00    +0.008 C 
ATOM     12  C   UNL     1      -0.222  -0.037   2.864  0.00  0.00    +0.008 C 
ENDBRANCH   9  10
ENDBRANCH   1   8
BRANCH   2  13
ATOM     13  N   UNL     1       1.454  -3.790  -1.285  0.00  0.00    -0.218 NA
ATOM     14  C   UNL     1       1.875  -4.955  -1.664  0.00  0.00    +0.221 C 
ATOM     15  N   UNL     1       1.877  -5.562  -2.879  0.00  0.00    -0.368 N 
ATOM     16  H   UNL     1       1.626  -5.037  -3.691  0.00  0.00    +0.159 HD
ATOM     17  H   UNL     1       2.731  -6.091  -3.012  0.00  0.00    +0.159 HD
BRANCH  14  18
ATOM     18  N   UNL     1       2.486  -5.722  -0.711  0.00  0.00    -0.221 NA
ATOM     19  C   UNL     1       1.829  -5.916   0.385  0.00  0.00    +0.114 C 
BRANCH  19  20
ATOM     20  C   UNL     1       2.383  -6.763   1.460  0.00  0.00    +0.012 C 
ATOM     21  C   UNL     1       1.762  -6.853   2.638  0.00  0.00    +0.010 C 
ENDBRANCH  19  20
ENDBRANCH  14  18
ENDBRANCH   2  13
TORSDOF 5
