REMARK  Name = 
REMARK  16 active torsions:
REMARK  status: ('A' for Active; 'I' for Inactive)
REMARK    1  A    between atoms: C_2  and  C_3
REMARK    2  A    between atoms: C_2  and  C_4
REMARK    3  A    between atoms: C_4  and  C_5
REMARK    4  A    between atoms: C_4  and  C_10
REMARK    5  A    between atoms: C_4  and  C_11
REMARK    6  A    between atoms: C_6  and  N_7
REMARK    7  A    between atoms: C_8  and  C_9
REMARK    8  A    between atoms: C_13  and  C_14
REMARK    9  A    between atoms: C_13  and  C_15
REMARK   10  A    between atoms: C_15  and  C_16
REMARK   11  A    between atoms: C_16  and  N_17
REMARK   12  A    between atoms: N_17  and  C_18
REMARK   13  A    between atoms: C_18  and  N_19
REMARK   14  A    between atoms: N_19  and  N_20
REMARK   15  A    between atoms: C_21  and  C_22
REMARK   16  A    between atoms: C_22  and  C_23
REMARK                            x       y       z     vdW  Elec       q    Type
REMARK                         _______ _______ _______ _____ _____    ______ ____
ROOT
ATOM      1  N   UNL     1       6.792  -3.721   5.692  0.00  0.00    -0.303 NA
ATOM      2  H   UNL     1       6.449  -2.988   6.307  0.00  0.00    +0.123 HD
ENDROOT
BRANCH   1   3
ATOM      3  C   UNL     1       7.255  -3.127   4.434  0.00  0.00    +0.087 C 
BRANCH   3   4
ATOM      4  C   UNL     1       6.154  -2.423   3.620  0.00  0.00    +0.054 C 
BRANCH   4   7
ATOM      5  C   UNL     1       4.751  -0.585   0.874  0.00  0.00    +0.039 C 
ATOM      6  C   UNL     1       5.673  -1.228   1.548  0.00  0.00    -0.124 C 
ATOM      7  C   UNL     1       6.554  -1.865   2.269  0.00  0.00    -0.030 C 
ATOM      8  C   UNL     1       7.917  -2.192   1.729  0.00  0.00    +0.048 C 
BRANCH   5   9
ATOM      9  C   UNL     1       3.232  -0.682   1.074  0.00  0.00    +0.033 C 
ATOM     10  C   UNL     1       2.634  -0.478  -0.340  0.00  0.00    +0.025 C 
BRANCH   9  12
ATOM     11  C   UNL     1       3.432   0.839   3.128  0.00  0.00    +0.008 C 
ATOM     12  C   UNL     1       2.730   0.415   2.057  0.00  0.00    -0.066 C 
ATOM     13  C   UNL     1       1.346   0.978   1.835  0.00  0.00    +0.039 C 
ENDBRANCH   9  12
BRANCH   9  14
ATOM     14  C   UNL     1       2.828  -2.087   1.531  0.00  0.00    +0.008 C 
ATOM     15  C   UNL     1       2.155  -2.425   2.641  0.00  0.00    +0.107 C 
BRANCH  15  16
ATOM     16  N   UNL     1       1.871  -3.728   2.948  0.00  0.00    -0.268 NA
ATOM     17  C   UNL     1       1.701  -3.964   4.208  0.00  0.00    +0.080 C 
ATOM     18  C   UNL     1       1.372  -5.340   4.695  0.00  0.00    +0.057 C 
ENDBRANCH  15  16
ENDBRANCH   9  14
ENDBRANCH   5   9
ENDBRANCH   4   7
ENDBRANCH   3   4
ENDBRANCH   1   3
BRANCH   1  19
ATOM     19  C   UNL     1       5.740  -4.712   5.537  0.00  0.00    +0.181 C 
BRANCH  19  20
ATOM     20  N   UNL     1       6.136  -5.796   4.655  0.00  0.00    -0.239 NA
ATOM     21  H   UNL     1       6.331  -5.404   3.739  0.00  0.00    +0.142 HD
BRANCH  20  22
ATOM     22  N   UNL     1       7.244  -6.655   5.123  0.00  0.00    -0.223 NA
ATOM     23  C   UNL     1       7.687  -7.608   4.067  0.00  0.00    +0.079 C 
ATOM     24  C   UNL     1       6.704  -7.834   2.866  0.00  0.00    +0.036 C 
ATOM     25  C   UNL     1       5.235  -8.218   3.139  0.00  0.00    +0.083 C 
ATOM     26  N   UNL     1       5.032  -9.392   3.976  0.00  0.00    -0.303 NA
ATOM     27  C   UNL     1       4.344  -9.159   5.236  0.00  0.00    +0.181 C 
ATOM     28  N   UNL     1       4.843  -8.025   6.004  0.00  0.00    -0.241 NA
ATOM     29  N   UNL     1       6.107  -8.278   6.670  0.00  0.00    -0.240 NA
ATOM     30  C   UNL     1       7.063  -7.171   6.487  0.00  0.00    +0.200 C 
ATOM     31  H   UNL     1       5.879  -9.919   4.105  0.00  0.00    +0.123 HD
ATOM     32  H   UNL     1       4.139  -7.739   6.682  0.00  0.00    +0.142 HD
ATOM     33  H   UNL     1       6.554  -9.134   6.365  0.00  0.00    +0.142 HD
BRANCH  23  34
ATOM     34  C   UNL     1       8.322  -8.991   4.455  0.00  0.00    +0.047 C 
BRANCH  34  35
ATOM     35  C   UNL     1       9.495  -9.003   5.394  0.00  0.00    -0.033 C 
ATOM     36  C   UNL     1       9.671  -9.957   6.320  0.00  0.00    +0.004 C 
ENDBRANCH  34  35
ENDBRANCH  23  34
ENDBRANCH  20  22
ENDBRANCH  19  20
ENDBRANCH   1  19
TORSDOF 12
