REMARK  Name = 
REMARK  4 active torsions:
REMARK  status: ('A' for Active; 'I' for Inactive)
REMARK    1  A    between atoms: C_1  and  C_2
REMARK    2  A    between atoms: C_3  and  C_4
REMARK    3  A    between atoms: C_4  and  C_7
REMARK    4  A    between atoms: C_9  and  C_10
REMARK                            x       y       z     vdW  Elec       q    Type
REMARK                         _______ _______ _______ _____ _____    ______ ____
ROOT
ATOM      1  C   UNL     1       4.728   0.662   0.801  0.00  0.00    -0.003 C 
ATOM      2  C   UNL     1       5.346   0.028  -0.157  0.00  0.00    -0.124 C 
ATOM      3  C   UNL     1       5.938  -0.611  -1.120  0.00  0.00    +0.069 C 
ENDROOT
BRANCH   1   4
ATOM      4  C   UNL     1       5.478   1.067   1.995  0.00  0.00    +0.030 C 
ATOM      5  C   UNL     1       5.328   2.496   2.477  0.00  0.00    +0.013 C 
ATOM      6  C   UNL     1       6.653   2.024   1.952  0.00  0.00    -0.005 C 
ATOM      7  C   UNL     1       7.202   2.608   0.694  0.00  0.00    +0.008 C 
ENDBRANCH   1   4
BRANCH   1  10
ATOM      8  C   UNL     1       1.012   1.160  -0.062  0.00  0.00    +0.035 C 
ATOM      9  C   UNL     1       2.506   1.140  -0.128  0.00  0.00    -0.029 C 
ATOM     10  C   UNL     1       3.283   0.681   0.864  0.00  0.00    +0.007 C 
ENDBRANCH   1  10
TORSDOF 2
