REMARK  Name = 
REMARK  11 active torsions:
REMARK  status: ('A' for Active; 'I' for Inactive)
REMARK    1  A    between atoms: C_6  and  C_7
REMARK    2  A    between atoms: C_8  and  C_9
REMARK    3  A    between atoms: C_8  and  C_13
REMARK    4  A    between atoms: C_10  and  C_11
REMARK    5  A    between atoms: C_14  and  C_15
REMARK    6  A    between atoms: C_14  and  N_16
REMARK    7  A    between atoms: N_16  and  N_17
REMARK    8  A    between atoms: N_17  and  C_18
REMARK    9  A    between atoms: C_19  and  C_22
REMARK   10  A    between atoms: N_20  and  C_21
REMARK   11  A    between atoms: C_22  and  C_23
REMARK                            x       y       z     vdW  Elec       q    Type
REMARK                         _______ _______ _______ _____ _____    ______ ____
ROOT
ATOM      1  C   UNL     1       2.097   0.184   1.423  0.00  0.00    -0.011 C 
ATOM      2  C   UNL     1       2.983   1.199   1.585  0.00  0.00    -0.027 C 
ENDROOT
BRANCH   1   8
ATOM      3  C   UNL     1      -0.233   0.285   0.444  0.00  0.00    +0.030 C 
ATOM      4  C   UNL     1      -1.072  -0.914   0.882  0.00  0.00    +0.102 C 
ATOM      5  N   UNL     1      -0.878  -1.993  -0.076  0.00  0.00    -0.350 N 
ATOM      6  C   UNL     1       0.392  -2.328  -0.468  0.00  0.00    +0.063 C 
ATOM      7  C   UNL     1       1.429  -1.493  -0.330  0.00  0.00    -0.005 C 
ATOM      8  C   UNL     1       1.248  -0.085   0.189  0.00  0.00    +0.038 C 
ATOM      9  H   UNL     1      -1.528  -2.772  -0.003  0.00  0.00    +0.146 HD
ENDBRANCH   1   8
BRANCH   2  10
ATOM     10  C   UNL     1       3.670   1.301   2.875  0.00  0.00    +0.027 C 
ATOM     11  C   UNL     1       3.737   2.364   3.710  0.00  0.00    +0.019 C 
ATOM     12  C   UNL     1       3.097   3.702   3.408  0.00  0.00    +0.062 C 
BRANCH  11  13
ATOM     13  N   UNL     1       4.354   2.305   4.960  0.00  0.00    -0.270 N 
ATOM     14  H   UNL     1       4.264   3.163   5.512  0.00  0.00    +0.170 HD
BRANCH  13  15
ATOM     15  N   UNL     1       5.425   1.532   5.327  0.00  0.00    -0.253 N 
ATOM     16  H   UNL     1       5.617   0.759   4.694  0.00  0.00    +0.171 HD
BRANCH  15  17
ATOM     17  C   UNL     1       5.704   1.156   6.611  0.00  0.00    +0.124 C 
ATOM     18  C   UNL     1       6.509   1.755   7.491  0.00  0.00    +0.049 C 
ATOM     19  N   UNL     1       5.222   1.477   7.852  0.00  0.00    -0.290 N 
ATOM     20  C   UNL     1       4.950   0.398   8.796  0.00  0.00    +0.136 C 
BRANCH  18  21
ATOM     21  C   UNL     1       7.227   3.034   7.253  0.00  0.00    +0.051 C 
ATOM     22  C   UNL     1       6.456   4.295   7.618  0.00  0.00    +0.010 C 
ENDBRANCH  18  21
ENDBRANCH  15  17
ENDBRANCH  13  15
ENDBRANCH  11  13
ENDBRANCH   2  10
BRANCH   2  23
ATOM     23  C   UNL     1       3.202   2.109   0.470  0.00  0.00    +0.009 C 
ATOM     24  C   UNL     1       4.349   2.255  -0.203  0.00  0.00    +0.020 C 
BRANCH  24  25
ATOM     25  C   UNL     1       4.318   3.127  -1.394  0.00  0.00    +0.101 C 
ATOM     26  N   UNL     1       5.322   3.374  -2.161  0.00  0.00    -0.307 NA
ATOM     27  H   UNL     1       6.166   2.893  -1.836  0.00  0.00    +0.186 HD
ENDBRANCH  24  25
ENDBRANCH   2  23
TORSDOF 8
