REMARK  Name = 
REMARK  13 active torsions:
REMARK  status: ('A' for Active; 'I' for Inactive)
REMARK    1  A    between atoms: C_1  and  C_2
REMARK    2  A    between atoms: C_2  and  C_3
REMARK    3  A    between atoms: C_2  and  C_4
REMARK    4  A    between atoms: C_2  and  C_5
REMARK    5  A    between atoms: C_15  and  N_16
REMARK    6  A    between atoms: N_16  and  N_17
REMARK    7  A    between atoms: N_17  and  C_18
REMARK    8  A    between atoms: C_19  and  C_20
REMARK    9  A    between atoms: C_23  and  C_24
REMARK   10  A    between atoms: C_24  and  C_25
REMARK   11  A    between atoms: C_24  and  C_26
REMARK   12  A    between atoms: C_26  and  C_27
REMARK   13  A    between atoms: C_27  and  C_28
REMARK                            x       y       z     vdW  Elec       q    Type
REMARK                         _______ _______ _______ _____ _____    ______ ____
ROOT
ATOM      1  C   UNL     1       8.071   0.613  -2.115  0.00  0.00    +0.036 C 
ATOM      2  C   UNL     1       8.761  -0.790  -1.693  0.00  0.00    +0.099 C 
ATOM      3  C   UNL     1       7.547  -1.819  -1.449  0.00  0.00    +0.187 C 
ATOM      4  O   UNL     1       7.539  -3.035  -1.329  0.00  0.00    -0.290 OA
ATOM      5  C   UNL     1       9.184  -0.019  -0.430  0.00  0.00    -0.018 C 
ATOM      6  C   UNL     1       8.888   1.190  -0.959  0.00  0.00    -0.017 C 
ATOM      7  C   UNL     1       6.594   0.348  -1.727  0.00  0.00    +0.014 A 
ATOM      8  C   UNL     1       6.385  -0.980  -1.442  0.00  0.00    +0.089 A 
ATOM      9  N   UNL     1       5.070  -1.167  -1.173  0.00  0.00    -0.356 N 
ATOM     10  C   UNL     1       4.468   0.077  -1.153  0.00  0.00    +0.108 A 
ATOM     11  C   UNL     1       5.413   1.040  -1.468  0.00  0.00    +0.066 A 
ATOM     12  H   UNL     1       4.624  -2.051  -0.958  0.00  0.00    +0.165 HD
ENDROOT
BRANCH   1  14
ATOM     13  C   UNL     1       7.793   0.119  -4.589  0.00  0.00    +0.012 C 
ATOM     14  C   UNL     1       8.323   1.139  -3.557  0.00  0.00    -0.024 C 
ATOM     15  C   UNL     1       9.827   1.337  -3.841  0.00  0.00    +0.012 C 
ATOM     16  C   UNL     1       7.620   2.485  -3.791  0.00  0.00    +0.012 C 
ENDBRANCH   1  14
BRANCH  11  17
ATOM     17  N   UNL     1       5.221   2.375  -1.453  0.00  0.00    -0.265 N 
ATOM     18  H   UNL     1       6.007   2.999  -1.632  0.00  0.00    +0.170 HD
BRANCH  17  19
ATOM     19  N   UNL     1       3.970   2.913  -1.658  0.00  0.00    -0.274 N 
ATOM     20  H   UNL     1       3.364   2.693  -0.861  0.00  0.00    +0.169 HD
BRANCH  19  21
ATOM     21  C   UNL     1       3.805   4.229  -2.024  0.00  0.00    +0.087 C 
ATOM     22  C   UNL     1       3.679   4.702  -3.270  0.00  0.00    +0.017 C 
BRANCH  22  23
ATOM     23  C   UNL     1       3.536   6.111  -3.542  0.00  0.00    +0.009 C 
ATOM     24  C   UNL     1       3.368   6.621  -4.764  0.00  0.00    -0.021 C 
ATOM     25  C   UNL     1       3.437   8.074  -4.587  0.00  0.00    +0.012 C 
ATOM     26  C   UNL     1       3.163   7.601  -5.746  0.00  0.00    -0.037 C 
BRANCH  26  27
ATOM     27  C   UNL     1       2.881   7.908  -7.145  0.00  0.00    +0.017 C 
ATOM     28  C   UNL     1       2.888   9.431  -7.345  0.00  0.00    +0.012 C 
BRANCH  27  29
ATOM     29  C   UNL     1       3.877   7.252  -8.120  0.00  0.00    +0.010 C 
BRANCH  29  30
ATOM     30  C   UNL     1       3.860   5.719  -8.069  0.00  0.00    +0.034 C 
BRANCH  30  31
ATOM     31  C   UNL     1       4.854   5.115  -9.047  0.00  0.00    +0.213 C 
ATOM     32  F   UNL     1       4.513   5.474 -10.311  0.00  0.00    -0.249 F 
ENDBRANCH  30  31
ENDBRANCH  29  30
ENDBRANCH  27  29
ENDBRANCH  26  27
ENDBRANCH  22  23
ENDBRANCH  19  21
ENDBRANCH  17  19
ENDBRANCH  11  17
TORSDOF 9
