REMARK  Name = 
REMARK  5 active torsions:
REMARK  status: ('A' for Active; 'I' for Inactive)
REMARK    1  A    between atoms: C_1  and  N_2
REMARK    2  A    between atoms: N_2  and  C_3
REMARK    3  A    between atoms: C_3  and  C_4
REMARK    4  A    between atoms: C_4  and  C_5
REMARK    5  A    between atoms: C_5  and  C_6
REMARK                            x       y       z     vdW  Elec       q    Type
REMARK                         _______ _______ _______ _____ _____    ______ ____
ROOT
ATOM      1  C   UNL     1       6.459   2.529   1.262  0.00  0.00    -0.018 C 
ATOM      2  C   UNL     1       7.182   3.171   2.196  0.00  0.00    -0.016 C 
ATOM      3  C   UNL     1       8.650   3.156   2.313  0.00  0.00    -0.025 C 
ATOM      4  C   UNL     1       9.556   2.948   1.353  0.00  0.00    +0.017 C 
ATOM      5  C   UNL     1       8.988   3.515   3.691  0.00  0.00    +0.008 C 
ATOM      6  C   UNL     1       7.877   3.921   4.335  0.00  0.00    +0.008 C 
ATOM      7  C   UNL     1       6.735   3.867   3.416  0.00  0.00    -0.025 C 
ATOM      8  C   UNL     1       5.575   4.472   3.670  0.00  0.00    +0.017 C 
ENDROOT
BRANCH   1   9
ATOM      9  C   UNL     1       4.964   2.403   1.257  0.00  0.00    +0.029 C 
BRANCH   9  10
ATOM     10  C   UNL     1       4.450   1.120   0.602  0.00  0.00    +0.019 C 
BRANCH  10  11
ATOM     11  C   UNL     1       2.920   1.093   0.659  0.00  0.00    +0.081 C 
BRANCH  11  13
ATOM     12  C   UNL     1       0.953  -0.158   0.081  0.00  0.00    +0.101 C 
ATOM     13  N   UNL     1       2.409  -0.124   0.031  0.00  0.00    -0.319 NA
ATOM     14  H   UNL     1       2.713  -0.158  -0.942  0.00  0.00    +0.122 HD
ENDBRANCH  11  13
ENDBRANCH  10  11
ENDBRANCH   9  10
ENDBRANCH   1   9
TORSDOF 4
