REMARK  Name = 
REMARK  10 active torsions:
REMARK  status: ('A' for Active; 'I' for Inactive)
REMARK    1  A    between atoms: C_1  and  C_2
REMARK    2  A    between atoms: C_2  and  O_3
REMARK    3  A    between atoms: O_3  and  C_4
REMARK    4  A    between atoms: C_15  and  C_16
REMARK    5  A    between atoms: C_17  and  C_18
REMARK    6  A    between atoms: C_18  and  O_19
REMARK    7  A    between atoms: C_18  and  C_21
REMARK    8  A    between atoms: O_19  and  C_20
REMARK    9  A    between atoms: C_21  and  N_22
REMARK   10  A    between atoms: C_24  and  C_25
REMARK                            x       y       z     vdW  Elec       q    Type
REMARK                         _______ _______ _______ _____ _____    ______ ____
ROOT
ATOM      1  C   UNL     1       4.207   0.888   1.280  0.00  0.00    +0.099 C 
ATOM      2  C   UNL     1       4.325   0.378   2.702  0.00  0.00    +0.086 C 
ATOM      3  C   UNL     1       4.847  -1.086   2.875  0.00  0.00    +0.049 C 
ATOM      4  C   UNL     1       5.246  -1.312   4.335  0.00  0.00    -0.018 C 
ATOM      5  C   UNL     1       6.487  -0.948   4.724  0.00  0.00    -0.003 C 
ATOM      6  C   UNL     1       7.332  -0.200   3.777  0.00  0.00    +0.008 C 
ATOM      7  C   UNL     1       7.101  -0.323   2.441  0.00  0.00    -0.015 C 
ATOM      8  C   UNL     1       6.130  -1.351   2.104  0.00  0.00    -0.040 C 
ATOM      9  C   UNL     1       6.490  -2.501   1.510  0.00  0.00    +0.013 C 
ATOM     10  C   UNL     1       5.241   1.307   0.516  0.00  0.00    +0.042 C 
ATOM     11  C   UNL     1       6.682   1.376   0.715  0.00  0.00    +0.012 C 
ATOM     12  C   UNL     1       7.557   0.674   1.478  0.00  0.00    -0.018 C 
ENDROOT
BRANCH  12  13
ATOM     13  C   UNL     1       8.974   0.820   1.168  0.00  0.00    +0.007 C 
ATOM     14  C   UNL     1       9.621   1.984   1.034  0.00  0.00    +0.006 C 
BRANCH  14  15
ATOM     15  C   UNL     1      11.009   2.074   0.446  0.00  0.00    +0.155 C 
BRANCH  15  16
ATOM     16  O   UNL     1      10.990   1.528  -0.882  0.00  0.00    -0.374 OA
ATOM     17  C   UNL     1      10.274   2.281  -1.850  0.00  0.00    +0.194 C 
ENDBRANCH  15  16
BRANCH  15  18
ATOM     18  C   UNL     1      11.583   3.511   0.563  0.00  0.00    +0.120 C 
BRANCH  18  19
ATOM     19  N   UNL     1      12.974   3.667   0.118  0.00  0.00    -0.294 NA
ATOM     20  C   UNL     1      13.970   2.919   0.880  0.00  0.00    +0.103 C 
ATOM     21  C   UNL     1      13.870   4.416   1.002  0.00  0.00    +0.068 C 
ATOM     22  C   UNL     1      13.510   5.022   2.315  0.00  0.00    +0.025 C 
ENDBRANCH  18  19
ENDBRANCH  15  18
ENDBRANCH  14  15
ENDBRANCH  12  13
BRANCH   1  23
ATOM     23  O   UNL     1       2.876   0.937   0.879  0.00  0.00    -0.496 OA
BRANCH  23  25
ATOM     24  C   UNL     1       1.059   1.508  -0.577  0.00  0.00    +0.048 C 
ATOM     25  C   UNL     1       2.566   1.474  -0.407  0.00  0.00    +0.225 C 
ENDBRANCH  23  25
ENDBRANCH   1  23
TORSDOF 7
