REMARK  Name = 
REMARK  8 active torsions:
REMARK  status: ('A' for Active; 'I' for Inactive)
REMARK    1  A    between atoms: C_8  and  N_9
REMARK    2  A    between atoms: C_10  and  C_11
REMARK    3  A    between atoms: C_12  and  N_13
REMARK    4  A    between atoms: N_13  and  O_14
REMARK    5  A    between atoms: O_14  and  C_15
REMARK    6  A    between atoms: C_16  and  N_17
REMARK    7  A    between atoms: N_17  and  C_18
REMARK    8  A    between atoms: C_19  and  C_20
REMARK                            x       y       z     vdW  Elec       q    Type
REMARK                         _______ _______ _______ _____ _____    ______ ____
ROOT
ATOM      1  N   UNL     1       6.734   3.234   0.290  0.00  0.00    -0.229 N 
ATOM      2  H   UNL     1       6.878   2.329  -0.163  0.00  0.00    +0.206 HD
ENDROOT
BRANCH   1   4
ATOM      3  C   UNL     1       5.066   5.017   0.129  0.00  0.00    +0.040 C 
ATOM      4  C   UNL     1       5.471   3.745   0.025  0.00  0.00    +0.121 C 
BRANCH   3   6
ATOM      5  N   UNL     1       3.432   6.721  -0.194  0.00  0.00    -0.283 NA
ATOM      6  C   UNL     1       3.717   5.470  -0.300  0.00  0.00    +0.107 C 
BRANCH   5  14
ATOM      7  C   UNL     1       0.823   6.659  -0.386  0.00  0.00    -0.024 C 
ATOM      8  C   UNL     1      -0.225   5.983  -0.874  0.00  0.00    -0.021 C 
ATOM      9  C   UNL     1      -1.473   5.911   0.009  0.00  0.00    +0.031 C 
ATOM     10  C   UNL     1      -1.177   6.020   1.549  0.00  0.00    +0.031 C 
ATOM     11  C   UNL     1      -0.067   7.016   1.858  0.00  0.00    -0.023 C 
ATOM     12  C   UNL     1       0.768   7.320   0.865  0.00  0.00    -0.044 C 
ATOM     13  C   UNL     1       1.742   8.354   0.376  0.00  0.00    +0.066 C 
ATOM     14  C   UNL     1       2.173   7.268  -0.705  0.00  0.00    +0.139 C 
ENDBRANCH   5  14
ENDBRANCH   3   6
ENDBRANCH   1   4
BRANCH   1  15
ATOM     15  O   UNL     1       7.821   4.087   0.059  0.00  0.00    -0.387 OA
BRANCH  15  16
ATOM     16  C   UNL     1       8.919   3.666   0.776  0.00  0.00    +0.240 C 
ATOM     17  C   UNL     1      10.096   4.296   0.671  0.00  0.00    +0.112 C 
BRANCH  17  18
ATOM     18  N   UNL     1      11.279   4.025   1.315  0.00  0.00    -0.324 N 
ATOM     19  H   UNL     1      11.272   3.237   1.957  0.00  0.00    +0.151 HD
BRANCH  18  20
ATOM     20  C   UNL     1      12.445   4.752   1.257  0.00  0.00    +0.072 C 
ATOM     21  C   UNL     1      13.590   4.507   1.912  0.00  0.00    +0.023 C 
BRANCH  21  22
ATOM     22  C   UNL     1      14.780   5.346   1.818  0.00  0.00    -0.021 C 
ATOM     23  C   UNL     1      15.895   4.780   1.309  0.00  0.00    -0.014 C 
ATOM     24  C   UNL     1      17.210   5.486   1.120  0.00  0.00    +0.055 C 
ATOM     25  C   UNL     1      17.182   6.941   1.509  0.00  0.00    -0.022 C 
ATOM     26  C   UNL     1      16.099   7.526   2.026  0.00  0.00    +0.004 C 
ATOM     27  C   UNL     1      14.869   6.764   2.247  0.00  0.00    -0.026 C 
ATOM     28  C   UNL     1      13.857   7.386   2.871  0.00  0.00    +0.017 C 
ENDBRANCH  21  22
ENDBRANCH  18  20
ENDBRANCH  17  18
ENDBRANCH  15  16
ENDBRANCH   1  15
TORSDOF 8
