REMARK  Name = 
REMARK  5 active torsions:
REMARK  status: ('A' for Active; 'I' for Inactive)
REMARK    1  A    between atoms: C_7  and  C_8
REMARK    2  A    between atoms: C_12  and  C_13
REMARK    3  A    between atoms: C_13  and  C_14
REMARK    4  A    between atoms: C_14  and  C_15
REMARK    5  A    between atoms: C_15  and  C_16
REMARK                            x       y       z     vdW  Elec       q    Type
REMARK                         _______ _______ _______ _____ _____    ______ ____
ROOT
ATOM      1  C   UNL     1      -0.167   1.625  -1.179  0.00  0.00    +0.113 C 
ATOM      2  N   UNL     1      -0.076   0.536  -2.126  0.00  0.00    -0.333 N 
ATOM      3  C   UNL     1       0.129   0.827  -3.498  0.00  0.00    +0.068 C 
ATOM      4  C   UNL     1       0.676   1.996  -3.902  0.00  0.00    +0.015 C 
ATOM      5  C   UNL     1       0.440   3.175  -3.074  0.00  0.00    +0.006 C 
ATOM      6  C   UNL     1       0.047   2.955  -1.816  0.00  0.00    -0.006 C 
ATOM      7  C   UNL     1      -0.227   3.733  -0.580  0.00  0.00    +0.101 C 
ATOM      8  C   UNL     1      -0.223   5.242  -0.675  0.00  0.00    +0.046 C 
ATOM      9  C   UNL     1      -1.530   3.090  -0.104  0.00  0.00    +0.005 C 
ATOM     10  C   UNL     1      -1.488   1.786  -0.478  0.00  0.00    +0.007 C 
ATOM     11  N   UNL     1       0.872   3.188   0.290  0.00  0.00    -0.275 NA
ATOM     12  C   UNL     1       0.895   1.930  -0.135  0.00  0.00    +0.046 C 
ATOM     13  H   UNL     1      -0.834  -0.132  -2.008  0.00  0.00    +0.147 HD
ENDROOT
BRANCH  12  14
ATOM     14  C   UNL     1       1.779   0.898   0.505  0.00  0.00    +0.053 C 
BRANCH  14  15
ATOM     15  C   UNL     1       2.837   0.278  -0.399  0.00  0.00    +0.006 C 
BRANCH  15  16
ATOM     16  C   UNL     1       3.799   1.295  -1.017  0.00  0.00    -0.003 C 
ATOM     17  C   UNL     1       4.909   0.602  -1.795  0.00  0.00    +0.004 C 
ENDBRANCH  15  16
ENDBRANCH  14  15
ENDBRANCH  12  14
TORSDOF 3
