REMARK  Name = 
REMARK  5 active torsions:
REMARK  status: ('A' for Active; 'I' for Inactive)
REMARK    1  A    between atoms: C_1  and  C_2
REMARK    2  A    between atoms: C_2  and  C_3
REMARK    3  A    between atoms: C_6  and  C_7
REMARK    4  A    between atoms: C_7  and  C_9
REMARK    5  A    between atoms: C_10  and  N_11
REMARK                            x       y       z     vdW  Elec       q    Type
REMARK                         _______ _______ _______ _____ _____    ______ ____
ROOT
ATOM      1  C   UNL     1       6.576  -1.180  -3.051  0.00  0.00    +0.188 C 
ATOM      2  O   UNL     1       7.118  -1.531  -4.093  0.00  0.00    -0.287 OA
ENDROOT
BRANCH   1   6
ATOM      3  C   UNL     1       2.897  -0.637  -1.543  0.00  0.00    -0.019 C 
ATOM      4  C   UNL     1       4.123  -0.804  -2.031  0.00  0.00    -0.017 C 
ATOM      5  C   UNL     1       3.963  -1.328  -3.399  0.00  0.00    +0.020 C 
ATOM      6  C   UNL     1       5.141  -1.144  -2.933  0.00  0.00    +0.029 C 
BRANCH   3   8
ATOM      7  C   UNL     1       1.834   1.193  -0.223  0.00  0.00    +0.008 C 
ATOM      8  C   UNL     1       2.645  -0.093  -0.165  0.00  0.00    +0.024 C 
ENDBRANCH   3   8
ENDBRANCH   1   6
BRANCH   1   9
ATOM      9  C   UNL     1       7.333  -0.785  -1.836  0.00  0.00    +0.066 C 
ATOM     10  C   UNL     1       8.670  -0.841  -1.830  0.00  0.00    +0.068 C 
BRANCH  10  11
ATOM     11  N   UNL     1       9.496  -0.566  -0.771  0.00  0.00    -0.364 N 
ATOM     12  H   UNL     1       9.089  -0.002  -0.030  0.00  0.00    +0.142 HD
ATOM     13  H   UNL     1      10.440  -0.287  -1.028  0.00  0.00    +0.142 HD
ENDBRANCH  10  11
ENDBRANCH   1   9
TORSDOF 4
