REMARK  Name = 
REMARK  7 active torsions:
REMARK  status: ('A' for Active; 'I' for Inactive)
REMARK    1  A    between atoms: N_3  and  C_4
REMARK    2  A    between atoms: C_4  and  C_5
REMARK    3  A    between atoms: C_5  and  C_6
REMARK    4  A    between atoms: C_9  and  C_12
REMARK    5  A    between atoms: C_13  and  N_14
REMARK    6  A    between atoms: C_13  and  C_15
REMARK    7  A    between atoms: C_15  and  C_16
REMARK                            x       y       z     vdW  Elec       q    Type
REMARK                         _______ _______ _______ _____ _____    ______ ____
ROOT
ATOM      1  C   UNL     1       2.080   0.025   0.995  0.00  0.00    +0.017 C 
ATOM      2  C   UNL     1       2.605   0.018   2.058  0.00  0.00    +0.020 C 
ATOM      3  N   UNL     1       3.843  -0.277   2.712  0.00  0.00    -0.269 N 
ATOM      4  C   UNL     1       4.893  -0.579   1.679  0.00  0.00    +0.257 C 
ATOM      5  N   UNL     1       5.339  -0.236   0.295  0.00  0.00    -0.267 NA
ATOM      6  C   UNL     1       4.760   0.173  -0.778  0.00  0.00    +0.057 C 
ATOM      7  C   UNL     1       3.281   0.471  -1.091  0.00  0.00    +0.165 C 
ATOM      8  N   UNL     1       2.214  -0.289  -0.420  0.00  0.00    -0.298 N 
ATOM      9  H   UNL     1       2.326  -1.287  -0.555  0.00  0.00    +0.156 HD
ENDROOT
BRANCH   6  10
ATOM     10  C   UNL     1       5.695   0.575  -1.920  0.00  0.00    +0.042 C 
ATOM     11  C   UNL     1       6.909   0.030  -2.148  0.00  0.00    +0.003 C 
BRANCH  11  12
ATOM     12  N   UNL     1       7.449  -0.979  -1.368  0.00  0.00    -0.361 N 
ATOM     13  H   UNL     1       6.971  -1.023  -0.461  0.00  0.00    +0.142 HD
ATOM     14  H   UNL     1       8.456  -0.895  -1.247  0.00  0.00    +0.142 HD
ENDBRANCH  11  12
BRANCH  11  15
ATOM     15  C   UNL     1       7.795   0.535  -3.277  0.00  0.00    +0.047 C 
ATOM     16  C   UNL     1       8.142  -0.560  -4.281  0.00  0.00    +0.010 C 
ENDBRANCH  11  15
ENDBRANCH   6  10
BRANCH   3  17
ATOM     17  C   UNL     1       3.738  -1.263   3.802  0.00  0.00    +0.116 C 
BRANCH  17  18
ATOM     18  C   UNL     1       5.103  -1.686   4.384  0.00  0.00    +0.016 C 
ATOM     19  C   UNL     1       5.895  -0.539   4.993  0.00  0.00    +0.005 C 
ENDBRANCH  17  18
ENDBRANCH   3  17
TORSDOF 5
