REMARK  Name = 
REMARK  3 active torsions:
REMARK  status: ('A' for Active; 'I' for Inactive)
REMARK    1  A    between atoms: C_6  and  N_7
REMARK    2  A    between atoms: C_22  and  C_23
REMARK    3  A    between atoms: C_23  and  C_24
REMARK                            x       y       z     vdW  Elec       q    Type
REMARK                         _______ _______ _______ _____ _____    ______ ____
ROOT
ATOM      1  C   UNL     1      -0.846  -6.089   0.362  0.00  0.00    +0.074 C 
ATOM      2  C   UNL     1       0.341  -5.492   1.054  0.00  0.00    -0.023 C 
ATOM      3  C   UNL     1       0.644  -5.817   2.317  0.00  0.00    -0.004 C 
ATOM      4  C   UNL     1      -0.268  -6.668   3.148  0.00  0.00    +0.010 C 
ATOM      5  C   UNL     1      -1.116  -7.649   2.652  0.00  0.00    +0.031 C 
ATOM      6  C   UNL     1      -1.469  -7.336   1.162  0.00  0.00    +0.118 C 
ATOM      7  C   UNL     1      -2.679  -8.264   2.738  0.00  0.00    +0.130 C 
ATOM      8  N   UNL     1      -3.732  -9.124   3.058  0.00  0.00    -0.236 NA
ATOM      9  N   UNL     1      -2.822  -7.104   1.783  0.00  0.00    -0.288 N 
ATOM     10  C   UNL     1      -3.171  -5.644   2.219  0.00  0.00    +0.144 C 
ATOM     11  C   UNL     1      -2.852  -5.163   3.614  0.00  0.00    +0.043 C 
ATOM     12  C   UNL     1      -3.170  -5.709   4.675  0.00  0.00    -0.123 C 
ATOM     13  C   UNL     1      -3.374  -6.466   5.737  0.00  0.00    +0.051 C 
ATOM     14  C   UNL     1      -2.575  -7.613   5.934  0.00  0.00    +0.008 C 
ATOM     15  C   UNL     1      -3.122  -8.661   6.534  0.00  0.00    +0.001 C 
ATOM     16  C   UNL     1      -2.490  -9.942   6.569  0.00  0.00    +0.000 C 
ATOM     17  C   UNL     1      -3.035 -10.911   7.350  0.00  0.00    +0.000 C 
ATOM     18  C   UNL     1      -3.090 -12.211   6.646  0.00  0.00    +0.000 C 
ATOM     19  C   UNL     1      -4.007 -12.156   5.661  0.00  0.00    +0.002 C 
ATOM     20  C   UNL     1      -3.615 -11.593   4.265  0.00  0.00    +0.023 C 
ATOM     21  C   UNL     1      -4.285 -10.478   3.798  0.00  0.00    +0.043 C 
ENDROOT
BRANCH   6  22
ATOM     22  N   UNL     1      -0.788  -8.515   0.623  0.00  0.00    -0.306 NA
ATOM     23  H   UNL     1       0.185  -8.476   0.998  0.00  0.00    +0.121 HD
ATOM     24  H   UNL     1      -0.536  -8.419  -0.367  0.00  0.00    +0.121 HD
ENDBRANCH   6  22
BRANCH  21  25
ATOM     25  C   UNL     1      -6.022 -10.920   3.996  0.00  0.00    +0.052 C 
ATOM     26  C   UNL     1      -6.732 -12.427   4.484  0.00  0.00    +0.010 C 
ENDBRANCH  21  25
TORSDOF 2
