REMARK  Name = 
REMARK  10 active torsions:
REMARK  status: ('A' for Active; 'I' for Inactive)
REMARK    1  A    between atoms: C_6  and  C_9
REMARK    2  A    between atoms: C_9  and  C_10
REMARK    3  A    between atoms: C_10  and  C_11
REMARK    4  A    between atoms: C_12  and  C_13
REMARK    5  A    between atoms: C_14  and  N_15
REMARK    6  A    between atoms: C_14  and  C_16
REMARK    7  A    between atoms: C_17  and  C_18
REMARK    8  A    between atoms: C_18  and  N_19
REMARK    9  A    between atoms: C_21  and  C_22
REMARK   10  A    between atoms: C_21  and  C_23
REMARK                            x       y       z     vdW  Elec       q    Type
REMARK                         _______ _______ _______ _____ _____    ______ ____
ROOT
ATOM      1  C   UNL     1      -1.339  -5.263  -0.522  0.00  0.00    -0.026 C 
ATOM      2  C   UNL     1      -2.538  -5.856  -0.559  0.00  0.00    -0.002 C 
ENDROOT
BRANCH   2   3
ATOM      3  C   UNL     1      -2.739  -7.256  -0.822  0.00  0.00    +0.022 C 
ATOM      4  C   UNL     1      -3.778  -7.980  -0.355  0.00  0.00    +0.024 C 
BRANCH   4   5
ATOM      5  N   UNL     1      -4.790  -7.463   0.428  0.00  0.00    -0.358 N 
ATOM      6  H   UNL     1      -4.581  -6.586   0.895  0.00  0.00    +0.142 HD
ATOM      7  H   UNL     1      -5.274  -8.123   1.028  0.00  0.00    +0.142 HD
ENDBRANCH   4   5
BRANCH   4   8
ATOM      8  C   UNL     1      -3.819  -9.403  -0.678  0.00  0.00    +0.020 C 
ATOM      9  C   UNL     1      -3.878  -9.908  -1.924  0.00  0.00    -0.001 C 
BRANCH   9  10
ATOM     10  C   UNL     1      -3.902 -11.376  -2.242  0.00  0.00    +0.179 C 
BRANCH  10  11
ATOM     11  N   UNL     1      -5.152 -11.653  -2.949  0.00  0.00    -0.238 NA
ATOM     12  C   UNL     1      -5.326 -12.777  -3.277  0.00  0.00    -0.019 C 
ATOM     13  C   UNL     1      -5.584 -13.985  -3.665  0.00  0.00    -0.015 C 
ATOM     14  C   UNL     1      -6.993 -14.497  -3.784  0.00  0.00    +0.049 C 
ATOM     15  C   UNL     1      -4.515 -14.957  -4.070  0.00  0.00    +0.049 C 
ENDBRANCH  10  11
ENDBRANCH   9  10
ENDBRANCH   4   8
ENDBRANCH   2   3
BRANCH   1  16
ATOM     16  C   UNL     1      -1.302  -3.800  -0.192  0.00  0.00    +0.031 C 
BRANCH  16  17
ATOM     17  C   UNL     1       0.085  -3.183  -0.173  0.00  0.00    +0.035 C 
BRANCH  17  23
ATOM     18  C   UNL     1       0.315   1.699  -0.726  0.00  0.00    +0.101 C 
ATOM     19  N   UNL     1       0.017   1.618   0.702  0.00  0.00    -0.350 N 
ATOM     20  C   UNL     1       0.995   1.123   1.529  0.00  0.00    +0.067 C 
ATOM     21  C   UNL     1       1.322  -0.139   1.803  0.00  0.00    +0.015 C 
ATOM     22  C   UNL     1       0.811  -1.380   1.285  0.00  0.00    +0.000 C 
ATOM     23  C   UNL     1       0.110  -1.693   0.174  0.00  0.00    -0.069 C 
ATOM     24  C   UNL     1      -0.603  -0.740  -0.782  0.00  0.00    +0.032 C 
ATOM     25  C   UNL     1       0.226   0.358  -1.453  0.00  0.00    +0.023 C 
ATOM     26  H   UNL     1      -0.838   1.085   0.846  0.00  0.00    +0.146 HD
ENDBRANCH  17  23
ENDBRANCH  16  17
ENDBRANCH   1  16
TORSDOF 8
