REMARK  Name = 
REMARK  5 active torsions:
REMARK  status: ('A' for Active; 'I' for Inactive)
REMARK    1  A    between atoms: C_5  and  C_6
REMARK    2  A    between atoms: C_8  and  C_9
REMARK    3  A    between atoms: C_9  and  C_10
REMARK    4  A    between atoms: C_11  and  C_12
REMARK    5  A    between atoms: N_13  and  C_14
REMARK                            x       y       z     vdW  Elec       q    Type
REMARK                         _______ _______ _______ _____ _____    ______ ____
ROOT
ATOM      1  C   UNL     1       0.863   3.468   1.385  0.00  0.00    +0.031 C 
ENDROOT
BRANCH   1   4
ATOM      2  C   UNL     1       2.334   1.615   0.069  0.00  0.00    -0.003 C 
ATOM      3  C   UNL     1       2.778   1.753   1.503  0.00  0.00    +0.008 C 
ATOM      4  C   UNL     1       2.147   2.936   0.810  0.00  0.00    -0.004 C 
BRANCH   2   9
ATOM      5  C   UNL     1       1.568  -0.781   0.030  0.00  0.00    +0.073 C 
ATOM      6  S   UNL     1       0.334  -1.754  -0.868  0.00  0.00    -0.160 S 
ATOM      7  C   UNL     1       0.048  -0.502  -2.149  0.00  0.00    +0.069 C 
ATOM      8  C   UNL     1       0.954   0.675  -1.808  0.00  0.00    +0.015 C 
ATOM      9  C   UNL     1       1.215   0.671  -0.296  0.00  0.00    +0.003 C 
ENDBRANCH   2   9
ENDBRANCH   1   4
BRANCH   1  10
ATOM     10  C   UNL     1       0.259   4.618   0.627  0.00  0.00    -0.025 C 
ATOM     11  C   UNL     1      -0.981   4.599   0.116  0.00  0.00    +0.015 C 
BRANCH  11  12
ATOM     12  C   UNL     1      -1.555   5.795  -0.546  0.00  0.00    +0.111 C 
ATOM     13  N   UNL     1      -2.750   5.770  -1.031  0.00  0.00    -0.254 NA
BRANCH  13  14
ATOM     14  C   UNL     1      -3.198   6.928  -1.603  0.00  0.00    +0.170 C 
ATOM     15  C   UNL     1      -4.386   6.939  -2.131  0.00  0.00    -0.050 C 
ATOM     16  C   UNL     1      -5.480   6.976  -2.623  0.00  0.00    -0.076 C 
ATOM     17  C   UNL     1      -6.665   7.026  -3.158  0.00  0.00    +0.078 C 
ENDBRANCH  13  14
ENDBRANCH  11  12
ENDBRANCH   1  10
TORSDOF 5
