REMARK  Name = 
REMARK  13 active torsions:
REMARK  status: ('A' for Active; 'I' for Inactive)
REMARK    1  A    between atoms: C_5  and  C_6
REMARK    2  A    between atoms: C_6  and  C_7
REMARK    3  A    between atoms: C_9  and  O_10
REMARK    4  A    between atoms: C_9  and  C_11
REMARK    5  A    between atoms: C_11  and  C_12
REMARK    6  A    between atoms: C_12  and  C_13
REMARK    7  A    between atoms: C_12  and  C_14
REMARK    8  A    between atoms: C_14  and  C_15
REMARK    9  A    between atoms: C_14  and  C_24
REMARK   10  A    between atoms: C_15  and  C_18
REMARK   11  A    between atoms: C_19  and  C_20
REMARK   12  A    between atoms: C_20  and  C_21
REMARK   13  A    between atoms: C_21  and  C_22
REMARK                            x       y       z     vdW  Elec       q    Type
REMARK                         _______ _______ _______ _____ _____    ______ ____
ROOT
ATOM      1  C   UNL     1       1.523  -1.619  -2.260  0.00  0.00    -0.006 C 
ATOM      2  C   UNL     1       1.011  -2.936  -1.660  0.00  0.00    +0.008 C 
ENDROOT
BRANCH   1   3
ATOM      3  C   UNL     1       1.395  -1.607  -3.818  0.00  0.00    +0.014 C 
ATOM      4  C   UNL     1       1.936  -2.879  -4.496  0.00  0.00    +0.010 C 
BRANCH   3   5
ATOM      5  C   UNL     1       1.991  -0.351  -4.522  0.00  0.00    +0.053 C 
ATOM      6  C   UNL     1       3.501  -0.074  -4.502  0.00  0.00    +0.108 C 
ATOM      7  N   UNL     1       2.597   0.726  -3.723  0.00  0.00    -0.304 NA
ATOM      8  H   UNL     1       2.383   1.632  -4.140  0.00  0.00    +0.123 HD
BRANCH   5   9
ATOM      9  C   UNL     1       1.125   0.167  -5.582  0.00  0.00    -0.008 C 
ATOM     10  C   UNL     1       1.395   0.818  -6.724  0.00  0.00    -0.029 C 
BRANCH  10  11
ATOM     11  C   UNL     1       0.234   1.276  -7.542  0.00  0.00    +0.031 C 
BRANCH  11  12
ATOM     12  C   UNL     1       0.612   1.997  -8.827  0.00  0.00    +0.030 C 
BRANCH  12  13
ATOM     13  C   UNL     1      -0.639   2.442  -9.521  0.00  0.00    -0.034 C 
ATOM     14  C   UNL     1      -0.922   3.733  -9.767  0.00  0.00    +0.004 C 
ENDBRANCH  12  13
ENDBRANCH  11  12
ENDBRANCH  10  11
ENDBRANCH   5   9
ENDBRANCH   3   5
ENDBRANCH   1   3
BRANCH   1  15
ATOM     15  C   UNL     1       0.749  -0.401  -1.663  0.00  0.00    +0.038 C 
BRANCH  15  21
ATOM     16  C   UNL     1       2.405   0.121   0.244  0.00  0.00    +0.035 C 
ATOM     17  C   UNL     1       3.088   1.346  -0.364  0.00  0.00    +0.003 C 
ATOM     18  C   UNL     1       2.289   2.638  -0.207  0.00  0.00    +0.000 C 
ATOM     19  C   UNL     1       0.813   2.489  -0.572  0.00  0.00    +0.006 C 
ATOM     20  C   UNL     1       0.141   1.284   0.127  0.00  0.00    +0.024 C 
ATOM     21  C   UNL     1       0.926  -0.041  -0.166  0.00  0.00    +0.069 C 
BRANCH  21  22
ATOM     22  O   UNL     1       0.328  -1.111   0.571  0.00  0.00    -0.388 OA
ATOM     23  H   UNL     1       0.717  -1.132   1.464  0.00  0.00    +0.210 HD
ENDBRANCH  21  22
BRANCH  20  24
ATOM     24  C   UNL     1      -0.048   1.550   1.642  0.00  0.00    +0.033 C 
BRANCH  24  25
ATOM     25  C   UNL     1      -0.990   2.695   1.910  0.00  0.00    -0.034 C 
ATOM     26  C   UNL     1      -0.653   3.809   2.572  0.00  0.00    +0.004 C 
ENDBRANCH  24  25
ENDBRANCH  20  24
ENDBRANCH  15  21
ENDBRANCH   1  15
TORSDOF 11
