REMARK  Name = 
REMARK  1 active torsions:
REMARK  status: ('A' for Active; 'I' for Inactive)
REMARK    1  A    between atoms: C_8  and  C_9
REMARK                            x       y       z     vdW  Elec       q    Type
REMARK                         _______ _______ _______ _____ _____    ______ ____
ROOT
ATOM      1  C   UNL     1       1.968   0.125   3.607  0.00  0.00    +0.091 C 
ATOM      2  C   UNL     1       2.517  -0.686   4.803  0.00  0.00    +0.234 C 
ATOM      3  O   UNL     1       1.546  -0.826   5.873  0.00  0.00    -0.498 OA
ATOM      4  C   UNL     1       1.080  -2.137   5.850  0.00  0.00    +0.201 C 
ATOM      5  C   UNL     1      -0.051  -2.390   5.200  0.00  0.00    +0.105 C 
ATOM      6  N   UNL     1      -0.072  -3.178   4.054  0.00  0.00    -0.346 N 
ATOM      7  C   UNL     1      -0.393  -2.453   2.809  0.00  0.00    +0.118 C 
ATOM      8  C   UNL     1       0.609  -2.584   1.664  0.00  0.00    +0.114 C 
ATOM      9  C   UNL     1       2.111  -2.590   2.028  0.00  0.00    +0.225 C 
ATOM     10  O   UNL     1       2.667  -3.653   2.327  0.00  0.00    -0.275 OA
ATOM     11  N   UNL     1       2.888  -1.471   1.888  0.00  0.00    -0.289 N 
ATOM     12  C   UNL     1       2.644  -0.169   2.273  0.00  0.00    +0.007 C 
ATOM     13  C   UNL     1       3.109   0.805   1.477  0.00  0.00    +0.029 C 
ATOM     14  H   UNL     1       0.774  -3.746   3.968  0.00  0.00    +0.146 HD
ATOM     15  H   UNL     1       3.870  -1.700   1.757  0.00  0.00    +0.154 HD
ENDROOT
BRANCH   8  16
ATOM     16  C   UNL     1       0.284  -1.552   0.598  0.00  0.00    -0.020 C 
ATOM     17  C   UNL     1       0.006  -1.835  -0.686  0.00  0.00    +0.005 C 
ENDBRANCH   8  16
TORSDOF 1
