REMARK  Name = 
REMARK  14 active torsions:
REMARK  status: ('A' for Active; 'I' for Inactive)
REMARK    1  A    between atoms: C_1  and  C_2
REMARK    2  A    between atoms: C_2  and  C_3
REMARK    3  A    between atoms: C_2  and  C_18
REMARK    4  A    between atoms: C_2  and  C_19
REMARK    5  A    between atoms: C_4  and  C_5
REMARK    6  A    between atoms: C_6  and  C_7
REMARK    7  A    between atoms: C_7  and  C_8
REMARK    8  A    between atoms: C_8  and  C_9
REMARK    9  A    between atoms: C_10  and  C_11
REMARK   10  A    between atoms: C_11  and  C_13
REMARK   11  A    between atoms: C_14  and  C_15
REMARK   12  A    between atoms: C_16  and  C_17
REMARK   13  A    between atoms: C_19  and  C_21
REMARK   14  A    between atoms: C_21  and  C_22
REMARK                            x       y       z     vdW  Elec       q    Type
REMARK                         _______ _______ _______ _____ _____    ______ ____
ROOT
ATOM      1  C   UNL     1       3.166   1.324  -3.496  0.00  0.00    -0.005 C 
ATOM      2  C   UNL     1       2.898   1.026  -4.777  0.00  0.00    -0.027 C 
ENDROOT
BRANCH   1   4
ATOM      3  C   UNL     1       2.996   0.725  -1.114  0.00  0.00    -0.016 C 
ATOM      4  C   UNL     1       2.685   0.512  -2.404  0.00  0.00    -0.004 C 
BRANCH   3   6
ATOM      5  C   UNL     1       3.019  -1.560  -0.130  0.00  0.00    +0.020 C 
ATOM      6  C   UNL     1       2.479  -0.118   0.058  0.00  0.00    +0.004 C 
ATOM      7  C   UNL     1       0.934  -0.201   0.027  0.00  0.00    +0.020 C 
BRANCH   6   8
ATOM      8  C   UNL     1       2.912   0.516   1.408  0.00  0.00    -0.064 C 
ATOM      9  C   UNL     1       3.677  -0.116   2.323  0.00  0.00    +0.009 C 
BRANCH   8  10
ATOM     10  C   UNL     1       2.480   1.956   1.676  0.00  0.00    +0.057 C 
BRANCH  10  11
ATOM     11  C   UNL     1       1.596   2.106   2.885  0.00  0.00    -0.030 C 
ATOM     12  C   UNL     1       0.359   2.621   2.859  0.00  0.00    +0.004 C 
ENDBRANCH  10  11
ENDBRANCH   8  10
ENDBRANCH   6   8
ENDBRANCH   3   6
ENDBRANCH   1   4
BRANCH   2  13
ATOM     13  C   UNL     1       3.379   1.846  -5.941  0.00  0.00    +0.031 C 
BRANCH  13  14
ATOM     14  C   UNL     1       2.374   1.850  -7.100  0.00  0.00    +0.031 C 
BRANCH  14  15
ATOM     15  C   UNL     1       2.900   2.643  -8.265  0.00  0.00    -0.026 C 
ATOM     16  C   UNL     1       2.275   3.708  -8.793  0.00  0.00    +0.003 C 
BRANCH  16  17
ATOM     17  C   UNL     1       2.784   4.480  -9.925  0.00  0.00    -0.032 C 
ATOM     18  C   UNL     1       1.880   5.149 -10.665  0.00  0.00    +0.017 C 
BRANCH  17  19
ATOM     19  C   UNL     1       4.218   4.696 -10.147  0.00  0.00    +0.007 C 
ATOM     20  C   UNL     1       4.800   4.893 -11.341  0.00  0.00    +0.000 C 
BRANCH  20  21
ATOM     21  C   UNL     1       6.223   5.078 -11.516  0.00  0.00    -0.004 C 
ATOM     22  C   UNL     1       6.773   5.284 -12.722  0.00  0.00    -0.030 C 
ATOM     23  C   UNL     1       8.235   5.465 -12.964  0.00  0.00    +0.035 C 
ENDBRANCH  20  21
ENDBRANCH  17  19
ENDBRANCH  16  17
ENDBRANCH  14  15
ENDBRANCH  13  14
ENDBRANCH   2  13
TORSDOF 11
