REMARK  Name = 
REMARK  7 active torsions:
REMARK  status: ('A' for Active; 'I' for Inactive)
REMARK    1  A    between atoms: C_1  and  C_2
REMARK    2  A    between atoms: C_2  and  C_3
REMARK    3  A    between atoms: C_8  and  C_9
REMARK    4  A    between atoms: C_9  and  N_11
REMARK    5  A    between atoms: N_11  and  N_12
REMARK    6  A    between atoms: N_12  and  C_13
REMARK    7  A    between atoms: C_13  and  C_14
REMARK                            x       y       z     vdW  Elec       q    Type
REMARK                         _______ _______ _______ _____ _____    ______ ____
ROOT
ATOM      1  C   UNL     1       2.936   1.389   0.142  0.00  0.00    -0.019 C 
ATOM      2  C   UNL     1       2.170   2.476  -0.053  0.00  0.00    -0.020 C 
ATOM      3  C   UNL     1       0.781   2.442  -0.484  0.00  0.00    +0.008 C 
ATOM      4  C   UNL     1       0.393   3.707  -0.677  0.00  0.00    +0.001 C 
ATOM      5  C   UNL     1       1.485   4.596  -0.340  0.00  0.00    +0.010 C 
ATOM      6  C   UNL     1       2.578   3.898   0.045  0.00  0.00    +0.003 C 
ENDROOT
BRANCH   1   8
ATOM      7  C   UNL     1       2.757  -0.861   1.268  0.00  0.00    +0.008 C 
ATOM      8  C   UNL     1       2.532  -0.056  -0.005  0.00  0.00    +0.024 C 
ENDBRANCH   1   8
BRANCH   6   9
ATOM      9  C   UNL     1       3.775   4.542   0.607  0.00  0.00    +0.042 C 
ATOM     10  C   UNL     1       4.180   5.748   0.152  0.00  0.00    +0.035 C 
BRANCH   9  11
ATOM     11  N   UNL     1       4.454   3.885   1.632  0.00  0.00    -0.280 N 
ATOM     12  H   UNL     1       4.022   2.979   1.817  0.00  0.00    +0.166 HD
BRANCH  11  13
ATOM     13  N   UNL     1       4.728   4.625   2.814  0.00  0.00    -0.243 NA
ATOM     14  H   UNL     1       3.847   4.879   3.268  0.00  0.00    +0.144 HD
BRANCH  13  15
ATOM     15  C   UNL     1       5.523   3.786   3.715  0.00  0.00    +0.098 C 
ATOM     16  C   UNL     1       5.688   4.469   5.063  0.00  0.00    +0.022 C 
ENDBRANCH  13  15
ENDBRANCH  11  13
ENDBRANCH   9  11
ENDBRANCH   6   9
TORSDOF 5
