REMARK  Name = 
REMARK  7 active torsions:
REMARK  status: ('A' for Active; 'I' for Inactive)
REMARK    1  A    between atoms: C_2  and  C_3
REMARK    2  A    between atoms: C_2  and  C_4
REMARK    3  A    between atoms: N_6  and  C_7
REMARK    4  A    between atoms: C_7  and  N_8
REMARK    5  A    between atoms: C_7  and  C_11
REMARK    6  A    between atoms: C_7  and  C_12
REMARK    7  A    between atoms: C_17  and  N_18
REMARK                            x       y       z     vdW  Elec       q    Type
REMARK                         _______ _______ _______ _____ _____    ______ ____
ROOT
ATOM      1  C   UNL     1       6.487  -0.063   0.129  0.00  0.00    +0.183 C 
ATOM      2  C   UNL     1       6.204  -0.403  -1.347  0.00  0.00    +0.065 C 
ENDROOT
BRANCH   1   3
ATOM      3  C   UNL     1       8.048   0.181   0.390  0.00  0.00    +0.173 C 
ATOM      4  N   UNL     1       8.279   0.441   1.824  0.00  0.00    -0.323 N 
ATOM      5  C   UNL     1       8.621   1.704   2.219  0.00  0.00    +0.182 C 
ATOM      6  N   UNL     1       9.061   2.665   1.482  0.00  0.00    -0.246 NA
ATOM      7  C   UNL     1       9.164   2.384   0.149  0.00  0.00    +0.138 C 
ATOM      8  C   UNL     1       8.747   1.255  -0.461  0.00  0.00    +0.096 C 
ATOM      9  H   UNL     1       7.575  -0.003   2.412  0.00  0.00    +0.148 HD
BRANCH   8  10
ATOM     10  N   UNL     1       8.983   1.119  -1.821  0.00  0.00    -0.169 NA
ATOM     11  C   UNL     1       9.252   0.037  -2.180  0.00  0.00    +0.240 C 
ATOM     12  O   UNL     1       9.442  -1.072  -2.528  0.00  0.00    -0.210 OA
ENDBRANCH   8  10
ENDBRANCH   1   3
BRANCH   1  15
ATOM     13  C   UNL     1       3.288   1.199   0.153  0.00  0.00    +0.074 C 
ATOM     14  C   UNL     1       4.577   1.164   0.349  0.00  0.00    -0.015 C 
ATOM     15  N   UNL     1       5.744   1.177   0.500  0.00  0.00    -0.210 NA
BRANCH  13  17
ATOM     16  C   UNL     1       2.601  -1.102  -0.310  0.00  0.00    +0.012 C 
ATOM     17  C   UNL     1       2.558   0.205  -0.615  0.00  0.00    -0.049 C 
ATOM     18  C   UNL     1       1.722   0.717  -1.755  0.00  0.00    +0.044 C 
ENDBRANCH  13  17
ENDBRANCH   1  15
BRANCH   1  19
ATOM     19  N   UNL     1       6.004  -1.146   1.028  0.00  0.00    -0.231 NA
ATOM     20  C   UNL     1       6.459  -2.328   0.845  0.00  0.00    +0.290 C 
ATOM     21  F   UNL     1       5.999  -3.291   1.652  0.00  0.00    -0.193 F 
ENDBRANCH   1  19
TORSDOF 5
