REMARK  Name = 
REMARK  2 active torsions:
REMARK  status: ('A' for Active; 'I' for Inactive)
REMARK    1  A    between atoms: C_12  and  C_13
REMARK    2  A    between atoms: C_17  and  C_18
REMARK                            x       y       z     vdW  Elec       q    Type
REMARK                         _______ _______ _______ _____ _____    ______ ____
ROOT
ATOM      1  C   UNL     1      -0.377  -1.285   1.397  0.00  0.00    +0.039 C 
ATOM      2  C   UNL     1      -1.286  -0.333   1.049  0.00  0.00    -0.003 C 
ATOM      3  C   UNL     1      -1.506  -0.130  -0.447  0.00  0.00    +0.033 C 
ATOM      4  C   UNL     1      -0.669  -1.120  -1.306  0.00  0.00    -0.001 C 
ATOM      5  C   UNL     1       0.788  -0.936  -0.820  0.00  0.00    +0.010 C 
ATOM      6  C   UNL     1       0.962  -1.312   0.657  0.00  0.00    +0.055 C 
ATOM      7  C   UNL     1      -1.186  -2.631  -1.437  0.00  0.00    +0.061 C 
ATOM      8  C   UNL     1      -1.565  -3.497  -0.202  0.00  0.00    +0.071 A 
ATOM      9  N   UNL     1      -2.133  -2.849   0.835  0.00  0.00    -0.171 NA
ATOM     10  N   UNL     1      -0.955  -2.579   1.507  0.00  0.00    -0.243 N 
ATOM     11  C   UNL     1      -0.300  -3.816   1.565  0.00  0.00    +0.123 A 
ATOM     12  C   UNL     1      -0.808  -4.519   0.472  0.00  0.00    +0.023 A 
ENDROOT
BRANCH  12  13
ATOM     13  C   UNL     1      -1.045  -5.924   0.595  0.00  0.00    -0.016 C 
ATOM     14  C   UNL     1      -0.109  -6.903   0.562  0.00  0.00    -0.014 C 
ATOM     15  C   UNL     1      -0.712  -8.227   0.945  0.00  0.00    +0.055 C 
ATOM     16  C   UNL     1      -2.132  -7.860   1.221  0.00  0.00    -0.019 C 
ATOM     17  C   UNL     1      -2.299  -6.541   1.028  0.00  0.00    -0.047 C 
ATOM     18  C   UNL     1      -3.556  -5.783   1.311  0.00  0.00    +0.044 C 
ENDBRANCH  12  13
TORSDOF 1
