REMARK  Name = 
REMARK  0 active torsions:
REMARK  status: ('A' for Active; 'I' for Inactive)
REMARK                            x       y       z     vdW  Elec       q    Type
REMARK                         _______ _______ _______ _____ _____    ______ ____
ROOT
ATOM      1  C   UNL     1      -1.296   0.022  -0.126  0.00  0.00    +0.135 C 
ATOM      2  N   UNL     1      -0.339   1.125  -0.287  0.00  0.00    -0.345 N 
ATOM      3  C   UNL     1       0.947   0.661  -0.119  0.00  0.00    +0.068 C 
ATOM      4  C   UNL     1       0.989  -0.663   0.072  0.00  0.00    +0.019 C 
ATOM      5  C   UNL     1      -0.371  -1.162   0.102  0.00  0.00    -0.036 C 
ATOM      6  C   UNL     1      -0.724  -2.432   0.323  0.00  0.00    +0.014 C 
ATOM      7  H   UNL     1      -0.545   1.963   0.250  0.00  0.00    +0.146 HD
ENDROOT
TORSDOF 0
