REMARK  Name = 
REMARK  4 active torsions:
REMARK  status: ('A' for Active; 'I' for Inactive)
REMARK    1  A    between atoms: C_8  and  C_9
REMARK    2  A    between atoms: C_9  and  C_10
REMARK    3  A    between atoms: C_14  and  C_15
REMARK    4  A    between atoms: C_14  and  C_16
REMARK                            x       y       z     vdW  Elec       q    Type
REMARK                         _______ _______ _______ _____ _____    ______ ____
ROOT
ATOM      1  C   UNL     1      -4.747  -2.110   0.191  0.00  0.00    +0.046 C 
ENDROOT
BRANCH   1   9
ATOM      2  C   UNL     1      -5.727  -5.597   3.210  0.00  0.00    +0.035 C 
ATOM      3  C   UNL     1      -4.810  -4.593   3.242  0.00  0.00    -0.021 C 
ATOM      4  C   UNL     1      -5.825  -4.014   4.150  0.00  0.00    +0.035 C 
ATOM      5  C   UNL     1      -6.759  -4.590   3.346  0.00  0.00    +0.065 C 
ATOM      6  N   UNL     1      -7.333  -4.220   2.097  0.00  0.00    -0.255 NA
ATOM      7  C   UNL     1      -6.659  -3.466   1.274  0.00  0.00    +0.115 C 
ATOM      8  C   UNL     1      -4.412  -3.497   2.254  0.00  0.00    +0.013 C 
ATOM      9  C   UNL     1      -5.233  -3.005   1.309  0.00  0.00    -0.028 C 
ENDBRANCH   1   9
BRANCH   1  10
ATOM     10  C   UNL     1      -5.434  -0.738   0.018  0.00  0.00    +0.040 C 
ATOM     11  C   UNL     1      -5.072   0.258   1.100  0.00  0.00    -0.006 C 
ATOM     12  C   UNL     1      -4.742   1.435   0.557  0.00  0.00    +0.064 C 
ATOM     13  N   UNL     1      -4.831   1.419  -0.811  0.00  0.00    -0.344 N 
ATOM     14  C   UNL     1      -5.012   0.042  -1.305  0.00  0.00    +0.033 C 
ATOM     15  C   UNL     1      -6.136   0.033  -2.344  0.00  0.00    +0.032 C 
ATOM     16  C   UNL     1      -3.698  -0.413  -1.958  0.00  0.00    +0.032 C 
ATOM     17  H   UNL     1      -4.177   2.024  -1.301  0.00  0.00    +0.146 HD
ENDBRANCH   1  10
TORSDOF 2
