REMARK  Name = 
REMARK  19 active torsions:
REMARK  status: ('A' for Active; 'I' for Inactive)
REMARK    1  A    between atoms: C_1  and  C_2
REMARK    2  A    between atoms: C_2  and  C_3
REMARK    3  A    between atoms: C_3  and  C_4
REMARK    4  A    between atoms: C_4  and  C_5
REMARK    5  A    between atoms: C_5  and  N_6
REMARK    6  A    between atoms: N_6  and  C_7
REMARK    7  A    between atoms: C_9  and  C_10
REMARK    8  A    between atoms: C_11  and  C_12
REMARK    9  A    between atoms: C_12  and  C_13
REMARK   10  A    between atoms: C_13  and  N_14
REMARK   11  A    between atoms: C_16  and  N_17
REMARK   12  A    between atoms: C_19  and  C_22
REMARK   13  A    between atoms: C_23  and  N_24
REMARK   14  A    between atoms: N_24  and  C_25
REMARK   15  A    between atoms: C_25  and  C_26
REMARK   16  A    between atoms: C_26  and  C_27
REMARK   17  A    between atoms: C_27  and  C_28
REMARK   18  A    between atoms: C_27  and  C_29
REMARK   19  A    between atoms: C_29  and  C_30
REMARK                            x       y       z     vdW  Elec       q    Type
REMARK                         _______ _______ _______ _____ _____    ______ ____
ROOT
ATOM      1  C   UNL     1      14.396 -10.768  -2.042  0.00  0.00    +0.072 C 
ATOM      2  C   UNL     1      14.161  -9.451  -1.851  0.00  0.00    -0.022 C 
ATOM      3  C   UNL     1      12.937  -8.469  -1.638  0.00  0.00    +0.065 C 
ATOM      4  C   UNL     1      15.405  -8.685  -1.679  0.00  0.00    +0.028 C 
ATOM      5  C   UNL     1      15.586  -7.993  -0.524  0.00  0.00    +0.025 C 
ATOM      6  C   UNL     1      15.972  -6.615  -0.699  0.00  0.00    +0.030 C 
ATOM      7  C   UNL     1      15.129  -5.617  -1.115  0.00  0.00    -0.022 C 
ATOM      8  C   UNL     1      13.685  -5.944  -1.455  0.00  0.00    +0.005 C 
ATOM      9  C   UNL     1      13.258  -7.000  -2.224  0.00  0.00    -0.014 C 
ENDROOT
BRANCH   5  10
ATOM     10  N   UNL     1      15.062  -8.331   0.708  0.00  0.00    -0.358 N 
ATOM     11  H   UNL     1      14.497  -9.174   0.669  0.00  0.00    +0.142 HD
ATOM     12  H   UNL     1      14.512  -7.555   1.084  0.00  0.00    +0.142 HD
ENDBRANCH   5  10
BRANCH   1  13
ATOM     13  N   UNL     1      13.694 -11.961  -2.084  0.00  0.00    -0.349 N 
ATOM     14  H   UNL     1      14.353 -12.702  -1.799  0.00  0.00    +0.146 HD
BRANCH  13  15
ATOM     15  C   UNL     1      13.047 -12.467  -3.309  0.00  0.00    +0.101 C 
BRANCH  15  16
ATOM     16  C   UNL     1      12.954 -14.004  -3.315  0.00  0.00    +0.019 C 
BRANCH  16  17
ATOM     17  C   UNL     1      12.278 -14.678  -2.108  0.00  0.00    +0.001 C 
BRANCH  17  19
ATOM     18  C   UNL     1      10.205 -14.886  -0.675  0.00  0.00    +0.004 C 
ATOM     19  C   UNL     1      10.853 -14.188  -1.863  0.00  0.00    -0.003 C 
ENDBRANCH  17  19
ENDBRANCH  16  17
ENDBRANCH  15  16
ENDBRANCH  13  15
ENDBRANCH   1  13
BRANCH   3  20
ATOM     20  C   UNL     1      11.564  -9.056  -1.893  0.00  0.00    -0.019 C 
ATOM     21  C   UNL     1      10.523  -8.556  -2.586  0.00  0.00    -0.029 C 
BRANCH  21  22
ATOM     22  C   UNL     1       9.119  -9.089  -2.410  0.00  0.00    +0.042 C 
BRANCH  22  23
ATOM     23  C   UNL     1       8.439  -8.557  -1.129  0.00  0.00    +0.081 C 
BRANCH  23  24
ATOM     24  N   UNL     1       8.261  -7.105  -1.137  0.00  0.00    -0.330 NA
ATOM     25  H   UNL     1       9.174  -6.660  -1.247  0.00  0.00    +0.118 HD
ATOM     26  H   UNL     1       7.915  -6.805  -0.224  0.00  0.00    +0.118 HD
ENDBRANCH  23  24
ENDBRANCH  22  23
ENDBRANCH  21  22
ENDBRANCH   3  20
BRANCH   7  27
ATOM     27  C   UNL     1      15.743  -4.274  -0.952  0.00  0.00    +0.023 C 
ATOM     28  C   UNL     1      15.210  -3.045  -0.975  0.00  0.00    +0.068 C 
BRANCH  28  29
ATOM     29  N   UNL     1      15.885  -1.843  -0.737  0.00  0.00    -0.350 N 
ATOM     30  H   UNL     1      15.244  -1.052  -0.676  0.00  0.00    +0.146 HD
BRANCH  29  31
ATOM     31  C   UNL     1      17.138  -1.475  -1.410  0.00  0.00    +0.101 C 
BRANCH  31  32
ATOM     32  C   UNL     1      17.681  -0.108  -0.951  0.00  0.00    +0.022 C 
BRANCH  32  33
ATOM     33  C   UNL     1      18.115   0.004   0.532  0.00  0.00    -0.013 C 
ATOM     34  C   UNL     1      19.204  -1.015   0.879  0.00  0.00    +0.007 C 
BRANCH  33  35
ATOM     35  C   UNL     1      18.591   1.449   0.832  0.00  0.00    -0.000 C 
ATOM     36  C   UNL     1      18.955   1.694   2.293  0.00  0.00    +0.004 C 
ENDBRANCH  33  35
ENDBRANCH  32  33
ENDBRANCH  31  32
ENDBRANCH  29  31
ENDBRANCH  28  29
ENDBRANCH   7  27
TORSDOF 16
