REMARK  Name = 
REMARK  5 active torsions:
REMARK  status: ('A' for Active; 'I' for Inactive)
REMARK    1  A    between atoms: C_11  and  C_12
REMARK    2  A    between atoms: C_13  and  C_14
REMARK    3  A    between atoms: C_15  and  C_16
REMARK    4  A    between atoms: C_33  and  C_34
REMARK    5  A    between atoms: C_34  and  C_35
REMARK                            x       y       z     vdW  Elec       q    Type
REMARK                         _______ _______ _______ _____ _____    ______ ____
ROOT
ATOM      1  C   UNL     1       0.834   2.497  -5.342  0.00  0.00    +0.035 C 
ATOM      2  C   UNL     1       1.487   2.449  -3.998  0.00  0.00    -0.030 C 
ATOM      3  C   UNL     1       0.950   3.322  -3.147  0.00  0.00    -0.030 C 
ATOM      4  C   UNL     1      -0.109   4.163  -3.778  0.00  0.00    +0.035 C 
ATOM      5  C   UNL     1      -0.419   3.504  -5.174  0.00  0.00    -0.006 C 
ATOM      6  C   UNL     1      -0.283   4.895  -6.367  0.00  0.00    +0.118 C 
ATOM      7  N   UNL     1      -1.402   5.480  -7.314  0.00  0.00    -0.302 N 
ATOM      8  C   UNL     1      -1.584   6.871  -8.281  0.00  0.00    +0.026 C 
ATOM      9  C   UNL     1      -2.053   7.661  -9.182  0.00  0.00    +0.076 C 
ATOM     10  O   UNL     1      -2.702   8.383 -10.161  0.00  0.00    -0.283 OA
ATOM     11  C   UNL     1      -4.083   8.032 -10.204  0.00  0.00    +0.200 C 
ATOM     12  C   UNL     1      -4.369   6.550 -10.249  0.00  0.00    +0.120 C 
ATOM     13  N   UNL     1      -3.862   5.517 -10.853  0.00  0.00    -0.265 NA
ATOM     14  C   UNL     1      -2.815   5.362 -11.755  0.00  0.00    +0.110 C 
ATOM     15  C   UNL     1      -1.480   5.522 -11.541  0.00  0.00    +0.023 C 
ATOM     16  C   UNL     1      -0.445   4.489 -11.203  0.00  0.00    -0.053 C 
ATOM     17  C   UNL     1       0.785   4.542 -11.767  0.00  0.00    +0.012 C 
ATOM     18  C   UNL     1      -0.615   3.448 -10.073  0.00  0.00    +0.038 C 
ATOM     19  C   UNL     1      -2.071   3.283  -9.637  0.00  0.00    +0.031 C 
ATOM     20  C   UNL     1      -2.516   2.927  -8.258  0.00  0.00    -0.031 C 
ATOM     21  C   UNL     1      -3.491   3.670  -7.663  0.00  0.00    -0.031 C 
ATOM     22  C   UNL     1      -3.928   3.486  -6.256  0.00  0.00    +0.032 C 
ATOM     23  C   UNL     1      -5.217   3.968  -5.600  0.00  0.00    +0.043 C 
ATOM     24  C   UNL     1      -1.568   2.350  -4.936  0.00  0.00    +0.014 C 
ATOM     25  C   UNL     1      -2.288   2.117  -3.565  0.00  0.00    +0.036 C 
ATOM     26  C   UNL     1      -3.640   1.441  -3.687  0.00  0.00    +0.024 C 
ATOM     27  C   UNL     1      -4.687   2.172  -3.955  0.00  0.00    -0.125 C 
ATOM     28  C   UNL     1      -5.499   3.130  -4.332  0.00  0.00    -0.028 C 
ATOM     29  H   UNL     1      -1.307   4.866  -8.110  0.00  0.00    +0.156 HD
ENDROOT
BRANCH  11  30
ATOM     30  C   UNL     1      -5.398   8.942 -10.571  0.00  0.00    +0.011 C 
ATOM     31  C   UNL     1      -6.563   8.741 -11.253  0.00  0.00    -0.002 C 
BRANCH  31  32
ATOM     32  C   UNL     1      -7.780   9.459 -10.832  0.00  0.00    -0.005 C 
ATOM     33  C   UNL     1      -9.057   9.371 -11.326  0.00  0.00    -0.030 C 
ATOM     34  C   UNL     1     -10.288  10.060 -10.749  0.00  0.00    +0.035 C 
ENDBRANCH  31  32
ENDBRANCH  11  30
BRANCH  28  35
ATOM     35  C   UNL     1      -6.510   3.694  -3.373  0.00  0.00    +0.036 C 
ATOM     36  C   UNL     1      -5.840   4.524  -2.282  0.00  0.00    +0.009 C 
ENDBRANCH  28  35
TORSDOF 3
