REMARK  Name = 
REMARK  8 active torsions:
REMARK  status: ('A' for Active; 'I' for Inactive)
REMARK    1  A    between atoms: C_4  and  N_5
REMARK    2  A    between atoms: N_5  and  C_6
REMARK    3  A    between atoms: C_7  and  C_8
REMARK    4  A    between atoms: C_8  and  N_10
REMARK    5  A    between atoms: C_11  and  C_12
REMARK    6  A    between atoms: C_11  and  C_13
REMARK    7  A    between atoms: C_14  and  C_15
REMARK    8  A    between atoms: C_15  and  C_16
REMARK                            x       y       z     vdW  Elec       q    Type
REMARK                         _______ _______ _______ _____ _____    ______ ____
ROOT
ATOM      1  C   UNL     1       4.437   0.722   3.663  0.00  0.00    +0.058 C 
ATOM      2  C   UNL     1       5.075   1.203   2.583  0.00  0.00    +0.038 C 
ENDROOT
BRANCH   1   3
ATOM      3  N   UNL     1       4.987   0.554   4.898  0.00  0.00    -0.253 NA
ATOM      4  C   UNL     1       5.697   1.418   5.563  0.00  0.00    +0.039 C 
ATOM      5  C   UNL     1       6.185   2.774   5.128  0.00  0.00    +0.065 C 
BRANCH   4   6
ATOM      6  C   UNL     1       6.093   1.048   6.972  0.00  0.00    +0.019 C 
ATOM      7  C   UNL     1       5.638  -0.062   7.553  0.00  0.00    -0.024 C 
BRANCH   7   8
ATOM      8  C   UNL     1       5.899  -0.401   8.983  0.00  0.00    +0.039 C 
BRANCH   8   9
ATOM      9  C   UNL     1       6.482  -1.750   9.269  0.00  0.00    +0.037 C 
ATOM     10  C   UNL     1       6.122  -3.042   8.698  0.00  0.00    -0.023 C 
ATOM     11  C   UNL     1       5.562  -2.667   9.838  0.00  0.00    -0.023 C 
ENDBRANCH   8   9
ENDBRANCH   7   8
ENDBRANCH   4   6
ENDBRANCH   1   3
BRANCH   1  13
ATOM     12  C   UNL     1       2.438  -0.496   4.489  0.00  0.00    +0.069 C 
ATOM     13  C   UNL     1       3.095   0.140   3.508  0.00  0.00    +0.042 C 
BRANCH  12  14
ATOM     14  N   UNL     1       1.229  -1.151   4.460  0.00  0.00    -0.347 N 
ATOM     15  H   UNL     1       0.685  -1.090   3.606  0.00  0.00    +0.146 HD
BRANCH  14  19
ATOM     16  C   UNL     1      -0.635  -2.577   5.321  0.00  0.00    +0.022 C 
ATOM     17  C   UNL     1      -1.450  -1.317   5.665  0.00  0.00    +0.004 C 
ATOM     18  C   UNL     1      -0.221  -0.799   6.436  0.00  0.00    +0.022 C 
ATOM     19  C   UNL     1       0.651  -1.773   5.613  0.00  0.00    +0.070 C 
ENDBRANCH  14  19
ENDBRANCH  12  14
ENDBRANCH   1  13
TORSDOF 7
