REMARK  Name = 
REMARK  4 active torsions:
REMARK  status: ('A' for Active; 'I' for Inactive)
REMARK    1  A    between atoms: C_2  and  C_3
REMARK    2  A    between atoms: C_9  and  N_10
REMARK    3  A    between atoms: N_10  and  C_11
REMARK    4  A    between atoms: N_10  and  C_12
REMARK                            x       y       z     vdW  Elec       q    Type
REMARK                         _______ _______ _______ _____ _____    ______ ____
ROOT
ATOM      1  C   UNL     1      -0.153  -1.460   0.498  0.00  0.00    +0.089 C 
ATOM      2  C   UNL     1      -1.341  -0.847  -0.195  0.00  0.00    -0.003 C 
ATOM      3  C   UNL     1      -1.520   0.482  -0.314  0.00  0.00    +0.007 C 
ATOM      4  C   UNL     1      -0.589   1.458   0.219  0.00  0.00    +0.000 C 
ATOM      5  C   UNL     1       0.749   1.329   0.246  0.00  0.00    +0.002 C 
ATOM      6  C   UNL     1       1.511   0.205  -0.273  0.00  0.00    +0.019 C 
ATOM      7  C   UNL     1       1.162  -1.102  -0.210  0.00  0.00    +0.010 C 
ENDROOT
BRANCH   7   8
ATOM      8  N   UNL     1       1.931  -2.142  -0.769  0.00  0.00    -0.339 N 
ATOM      9  C   UNL     1       3.374  -2.056  -1.005  0.00  0.00    +0.128 C 
ATOM     10  C   UNL     1       1.366  -3.427  -1.198  0.00  0.00    +0.128 C 
ENDBRANCH   7   8
BRANCH   2  11
ATOM     11  C   UNL     1      -2.350  -1.742  -0.806  0.00  0.00    +0.254 C 
ATOM     12  O   UNL     1      -2.305  -2.964  -0.726  0.00  0.00    -0.296 OA
ENDBRANCH   2  11
TORSDOF 2
