REMARK  Name = 
REMARK  5 active torsions:
REMARK  status: ('A' for Active; 'I' for Inactive)
REMARK    1  A    between atoms: C_1  and  C_2
REMARK    2  A    between atoms: C_6  and  C_7
REMARK    3  A    between atoms: C_7  and  C_8
REMARK    4  A    between atoms: C_14  and  C_15
REMARK    5  A    between atoms: C_18  and  C_19
REMARK                            x       y       z     vdW  Elec       q    Type
REMARK                         _______ _______ _______ _____ _____    ______ ____
ROOT
ATOM      1  C   UNL     1       4.633  -2.926   0.918  0.00  0.00    -0.023 C 
ATOM      2  C   UNL     1       5.954  -3.109   1.191  0.00  0.00    -0.064 C 
ATOM      3  C   UNL     1       6.403  -4.457   1.751  0.00  0.00    +0.085 C 
ATOM      4  C   UNL     1       7.853  -4.591   2.166  0.00  0.00    +0.039 C 
ATOM      5  C   UNL     1       8.172  -4.698   3.471  0.00  0.00    +0.034 C 
ATOM      6  N   UNL     1       8.895  -4.802   1.297  0.00  0.00    -0.257 NA
ATOM      7  C   UNL     1       9.045  -4.438   0.075  0.00  0.00    +0.041 C 
ATOM      8  C   UNL     1      10.421  -4.806  -0.487  0.00  0.00    +0.066 C 
ATOM      9  C   UNL     1       7.069  -2.160   0.807  0.00  0.00    +0.058 C 
ATOM     10  C   UNL     1       7.453  -2.567  -0.570  0.00  0.00    -0.018 C 
ATOM     11  C   UNL     1       8.189  -3.649  -0.895  0.00  0.00    -0.033 C 
ATOM     12  C   UNL     1       8.172  -4.155  -2.310  0.00  0.00    +0.045 C 
ENDROOT
BRANCH   1  13
ATOM     13  C   UNL     1       3.941  -1.683   0.481  0.00  0.00    +0.059 C 
BRANCH  13  19
ATOM     14  C   UNL     1       3.350  -3.397  -2.826  0.00  0.00    +0.026 C 
ATOM     15  C   UNL     1       2.574  -2.186  -2.298  0.00  0.00    +0.088 C 
ATOM     16  C   UNL     1       2.164  -1.051  -3.658  0.00  0.00    -0.090 C 
ATOM     17  C   UNL     1       2.574  -0.653  -2.486  0.00  0.00    -0.074 C 
ATOM     18  C   UNL     1       3.053  -0.190  -1.119  0.00  0.00    +0.060 C 
ATOM     19  C   UNL     1       3.326  -1.463  -0.879  0.00  0.00    -0.043 C 
ENDBRANCH  13  19
ENDBRANCH   1  13
TORSDOF 2
