REMARK  Name = 
REMARK  1 active torsions:
REMARK  status: ('A' for Active; 'I' for Inactive)
REMARK    1  A    between atoms: C_8  and  C_9
REMARK                            x       y       z     vdW  Elec       q    Type
REMARK                         _______ _______ _______ _____ _____    ______ ____
ROOT
ATOM      1  C   UNL     1       1.598  -1.510   0.954  0.00  0.00    -0.046 C 
ATOM      2  C   UNL     1       1.220  -2.400   1.654  0.00  0.00    +0.051 C 
ATOM      3  N   UNL     1       1.496  -3.349   2.558  0.00  0.00    -0.134 NA
ATOM      4  C   UNL     1       2.635  -3.167   2.803  0.00  0.00    +0.105 C 
ATOM      5  N   UNL     1       3.745  -2.847   3.009  0.00  0.00    -0.220 NA
ATOM      6  C   UNL     1       4.504  -2.107   1.972  0.00  0.00    +0.182 C 
ATOM      7  C   UNL     1       3.934  -1.069   1.004  0.00  0.00    +0.009 C 
ATOM      8  C   UNL     1       2.712  -0.753   0.517  0.00  0.00    -0.001 C 
ATOM      9  C   UNL     1       2.526   0.331  -0.508  0.00  0.00    +0.053 C 
ENDROOT
TORSDOF 0
