REMARK  Name = 
REMARK  8 active torsions:
REMARK  status: ('A' for Active; 'I' for Inactive)
REMARK    1  A    between atoms: C_1  and  C_2
REMARK    2  A    between atoms: C_3  and  C_4
REMARK    3  A    between atoms: C_5  and  C_6
REMARK    4  A    between atoms: C_5  and  C_10
REMARK    5  A    between atoms: C_6  and  C_7
REMARK    6  A    between atoms: C_7  and  C_8
REMARK    7  A    between atoms: C_8  and  N_9
REMARK    8  A    between atoms: C_11  and  C_12
REMARK                            x       y       z     vdW  Elec       q    Type
REMARK                         _______ _______ _______ _____ _____    ______ ____
ROOT
ATOM      1  C   UNL     1       4.678  -1.002  -0.508  0.00  0.00    +0.003 C 
ATOM      2  C   UNL     1       5.331  -2.121  -0.891  0.00  0.00    -0.047 C 
ENDROOT
BRANCH   1   5
ATOM      3  C   UNL     1       1.136   0.378   0.026  0.00  0.00    +0.035 C 
ATOM      4  C   UNL     1       2.626   0.266  -0.018  0.00  0.00    -0.030 C 
ATOM      5  C   UNL     1       3.240  -0.847  -0.445  0.00  0.00    -0.004 C 
ENDBRANCH   1   5
BRANCH   2   6
ATOM      6  C   UNL     1       6.790  -2.168  -0.872  0.00  0.00    +0.007 C 
ATOM      7  C   UNL     1       7.571  -1.336  -1.571  0.00  0.00    +0.043 C 
BRANCH   7   8
ATOM      8  C   UNL     1       9.037  -1.491  -1.524  0.00  0.00    +0.251 C 
ATOM      9  O   UNL     1       9.774  -0.777  -2.192  0.00  0.00    -0.296 OA
ENDBRANCH   7   8
ENDBRANCH   2   6
BRANCH   2  10
ATOM     10  C   UNL     1       4.664  -3.435  -1.259  0.00  0.00    +0.036 C 
BRANCH  10  11
ATOM     11  C   UNL     1       4.217  -3.553  -2.724  0.00  0.00    +0.019 C 
BRANCH  11  12
ATOM     12  C   UNL     1       5.361  -3.540  -3.738  0.00  0.00    +0.078 C 
BRANCH  12  13
ATOM     13  N   UNL     1       4.829  -3.731  -5.085  0.00  0.00    -0.330 NA
ATOM     14  H   UNL     1       4.342  -4.624  -5.146  0.00  0.00    +0.118 HD
ATOM     15  H   UNL     1       5.598  -3.775  -5.753  0.00  0.00    +0.118 HD
ENDBRANCH  12  13
ENDBRANCH  11  12
ENDBRANCH  10  11
ENDBRANCH   2  10
TORSDOF 7
