REMARK  Name = 
REMARK  1 active torsions:
REMARK  status: ('A' for Active; 'I' for Inactive)
REMARK    1  A    between atoms: C_9  and  C_10
REMARK                            x       y       z     vdW  Elec       q    Type
REMARK                         _______ _______ _______ _____ _____    ______ ____
ROOT
ATOM      1  C   UNL     1       1.419   0.175  -2.751  0.00  0.00    -0.020 C 
ATOM      2  C   UNL     1       1.485   0.061  -4.095  0.00  0.00    -0.004 C 
ATOM      3  C   UNL     1       2.420  -0.272  -5.167  0.00  0.00    -0.000 C 
ATOM      4  C   UNL     1       3.534  -1.016  -5.314  0.00  0.00    -0.000 C 
ATOM      5  C   UNL     1       4.241  -1.711  -4.271  0.00  0.00    -0.000 C 
ATOM      6  C   UNL     1       5.061  -1.013  -3.455  0.00  0.00    -0.000 C 
ATOM      7  C   UNL     1       4.548  -0.957  -2.097  0.00  0.00    -0.004 C 
ATOM      8  C   UNL     1       3.783   0.137  -1.916  0.00  0.00    -0.020 C 
ATOM      9  C   UNL     1       2.342  -0.010  -1.549  0.00  0.00    +0.031 C 
ATOM     10  C   UNL     1       2.017   0.977  -0.419  0.00  0.00    +0.016 C 
ENDROOT
TORSDOF 0
