REMARK  Name = 
REMARK  6 active torsions:
REMARK  status: ('A' for Active; 'I' for Inactive)
REMARK    1  A    between atoms: C_5  and  C_6
REMARK    2  A    between atoms: C_8  and  O_9
REMARK    3  A    between atoms: O_9  and  C_10
REMARK    4  A    between atoms: C_11  and  C_12
REMARK    5  A    between atoms: C_13  and  C_14
REMARK    6  A    between atoms: C_18  and  C_19
REMARK                            x       y       z     vdW  Elec       q    Type
REMARK                         _______ _______ _______ _____ _____    ______ ____
ROOT
ATOM      1  C   UNL     1      -0.729  -1.198  -0.396  0.00  0.00    -0.015 C 
ATOM      2  C   UNL     1       0.563  -1.081  -0.058  0.00  0.00    -0.004 C 
ATOM      3  C   UNL     1       1.394   0.047  -0.361  0.00  0.00    -0.004 C 
ATOM      4  C   UNL     1       1.029   1.326  -0.511  0.00  0.00    -0.019 C 
ATOM      5  C   UNL     1      -0.299   2.041  -0.327  0.00  0.00    +0.038 C 
ATOM      6  C   UNL     1       0.017   3.204   0.630  0.00  0.00    +0.016 C 
ATOM      7  C   UNL     1      -1.500   1.156   0.033  0.00  0.00    -0.018 C 
ATOM      8  C   UNL     1      -2.386   1.437   1.022  0.00  0.00    +0.187 C 
ATOM      9  C   UNL     1      -1.663  -0.099  -0.852  0.00  0.00    +0.064 C 
ENDROOT
BRANCH   8  10
ATOM     10  O   UNL     1      -2.324   2.581   1.768  0.00  0.00    -0.503 OA
ATOM     11  C   UNL     1      -3.362   2.843   2.701  0.00  0.00    +0.276 C 
ENDBRANCH   8  10
BRANCH   9  12
ATOM     12  C   UNL     1      -1.800   0.235  -2.363  0.00  0.00    -0.015 C 
ATOM     13  C   UNL     1      -0.984   0.173  -3.451  0.00  0.00    +0.002 C 
BRANCH  13  14
ATOM     14  C   UNL     1      -1.462   0.695  -5.124  0.00  0.00    -0.025 C 
ATOM     15  C   UNL     1       0.237   0.806  -6.298  0.00  0.00    +0.064 C 
ATOM     16  C   UNL     1      -1.187   0.826  -5.766  0.00  0.00    -0.073 C 
ATOM     17  C   UNL     1      -2.408   0.844  -5.310  0.00  0.00    -0.090 C 
ATOM     18  C   UNL     1      -3.832   0.864  -4.778  0.00  0.00    +0.092 C 
ATOM     19  C   UNL     1      -4.659   0.551  -6.018  0.00  0.00    +0.026 C 
ENDBRANCH  13  14
ENDBRANCH   9  12
TORSDOF 3
