REMARK  Name = 
REMARK  22 active torsions:
REMARK  status: ('A' for Active; 'I' for Inactive)
REMARK    1  A    between atoms: C_1  and  C_2
REMARK    2  A    between atoms: C_2  and  N_3
REMARK    3  A    between atoms: N_3  and  C_4
REMARK    4  A    between atoms: C_5  and  C_6
REMARK    5  A    between atoms: C_6  and  C_7
REMARK    6  A    between atoms: N_9  and  C_10
REMARK    7  A    between atoms: C_11  and  C_12
REMARK    8  A    between atoms: C_13  and  C_14
REMARK    9  A    between atoms: C_15  and  C_16
REMARK   10  A    between atoms: C_17  and  C_18
REMARK   11  A    between atoms: C_19  and  C_20
REMARK   12  A    between atoms: C_20  and  C_22
REMARK   13  A    between atoms: C_22  and  C_23
REMARK   14  A    between atoms: C_22  and  C_24
REMARK   15  A    between atoms: C_24  and  C_25
REMARK   16  A    between atoms: C_25  and  C_26
REMARK   17  A    between atoms: C_26  and  C_27
REMARK   18  A    between atoms: C_29  and  C_30
REMARK   19  A    between atoms: C_30  and  C_31
REMARK   20  A    between atoms: C_31  and  C_32
REMARK   21  A    between atoms: C_32  and  C_33
REMARK   22  A    between atoms: C_33  and  C_34
REMARK                            x       y       z     vdW  Elec       q    Type
REMARK                         _______ _______ _______ _____ _____    ______ ____
ROOT
ATOM      1  C   UNL     1       7.748   0.919   8.046  0.00  0.00    +0.000 C 
ATOM      2  C   UNL     1       8.003   1.053   9.363  0.00  0.00    +0.000 C 
ENDROOT
BRANCH   2   3
ATOM      3  C   UNL     1       8.280  -0.080  10.230  0.00  0.00    +0.000 C 
ATOM      4  C   UNL     1       8.528   0.017  11.549  0.00  0.00    +0.003 C 
BRANCH   4   5
ATOM      5  C   UNL     1       8.763  -1.124  12.432  0.00  0.00    -0.052 C 
ATOM      6  C   UNL     1       9.791  -1.964  12.211  0.00  0.00    +0.012 C 
BRANCH   5   7
ATOM      7  C   UNL     1       7.833  -1.302  13.637  0.00  0.00    +0.015 C 
ATOM      8  C   UNL     1       7.892  -0.104  14.599  0.00  0.00    +0.012 C 
BRANCH   7   9
ATOM      9  C   UNL     1       6.358  -1.573  13.238  0.00  0.00    +0.008 C 
BRANCH   9  10
ATOM     10  C   UNL     1       6.098  -2.853  12.424  0.00  0.00    +0.005 C 
BRANCH  10  11
ATOM     11  C   UNL     1       6.504  -4.105  13.209  0.00  0.00    +0.031 C 
BRANCH  11  12
ATOM     12  C   UNL     1       6.227  -5.379  12.489  0.00  0.00    -0.066 C 
ATOM     13  C   UNL     1       5.453  -6.342  12.978  0.00  0.00    -0.019 C 
ATOM     14  C   UNL     1       6.817  -6.684  12.711  0.00  0.00    +0.037 C 
BRANCH  14  15
ATOM     15  C   UNL     1       7.097  -7.653  11.608  0.00  0.00    +0.012 C 
BRANCH  15  16
ATOM     16  C   UNL     1       8.599  -7.900  11.469  0.00  0.00    +0.001 C 
BRANCH  16  17
ATOM     17  C   UNL     1       8.901  -8.911  10.368  0.00  0.00    -0.000 C 
BRANCH  17  18
ATOM     18  C   UNL     1      10.406  -9.138  10.237  0.00  0.00    -0.003 C 
ATOM     19  C   UNL     1      10.712 -10.141   9.139  0.00  0.00    +0.004 C 
ENDBRANCH  17  18
ENDBRANCH  16  17
ENDBRANCH  15  16
ENDBRANCH  14  15
ENDBRANCH  11  12
ENDBRANCH  10  11
ENDBRANCH   9  10
ENDBRANCH   7   9
ENDBRANCH   5   7
ENDBRANCH   4   5
ENDBRANCH   2   3
BRANCH   1  21
ATOM     20  C   UNL     1       7.193   1.928   5.852  0.00  0.00    +0.023 C 
ATOM     21  C   UNL     1       7.454   2.031   7.168  0.00  0.00    +0.002 C 
BRANCH  20  25
ATOM     22  C   UNL     1       6.788   4.427   5.179  0.00  0.00    -0.027 C 
ATOM     23  C   UNL     1       6.478   4.620   3.719  0.00  0.00    +0.143 C 
ATOM     24  N   UNL     1       6.620   3.203   3.669  0.00  0.00    -0.303 N 
ATOM     25  C   UNL     1       6.882   3.089   4.949  0.00  0.00    +0.035 C 
BRANCH  24  26
ATOM     26  C   UNL     1       6.562   2.363   2.590  0.00  0.00    +0.071 C 
ATOM     27  C   UNL     1       6.347   2.694   1.306  0.00  0.00    -0.015 C 
ATOM     28  C   UNL     1       6.314   1.721   0.174  0.00  0.00    +0.036 C 
ENDBRANCH  24  26
BRANCH  22  29
ATOM     29  C   UNL     1       6.927   5.390   6.329  0.00  0.00    +0.062 C 
BRANCH  29  31
ATOM     30  C   UNL     1       8.788   7.073   6.390  0.00  0.00    +0.063 C 
ATOM     31  C   UNL     1       8.369   5.807   6.476  0.00  0.00    -0.008 C 
BRANCH  30  32
ATOM     32  N   UNL     1      10.081   7.500   6.507  0.00  0.00    -0.350 N 
ATOM     33  H   UNL     1      10.771   6.793   6.750  0.00  0.00    +0.146 HD
BRANCH  32  35
ATOM     34  C   UNL     1      12.033   8.955   6.572  0.00  0.00    +0.024 C 
ATOM     35  C   UNL     1      10.526   8.875   6.407  0.00  0.00    +0.097 C 
ENDBRANCH  32  35
ENDBRANCH  30  32
ENDBRANCH  29  31
ENDBRANCH  22  29
ENDBRANCH  20  25
ENDBRANCH   1  21
TORSDOF 18
