REMARK  Name = 
REMARK  11 active torsions:
REMARK  status: ('A' for Active; 'I' for Inactive)
REMARK    1  A    between atoms: C_1  and  C_2
REMARK    2  A    between atoms: C_3  and  C_4
REMARK    3  A    between atoms: C_5  and  C_6
REMARK    4  A    between atoms: C_5  and  C_7
REMARK    5  A    between atoms: C_7  and  C_8
REMARK    6  A    between atoms: C_9  and  C_10
REMARK    7  A    between atoms: C_9  and  C_13
REMARK    8  A    between atoms: C_16  and  C_26
REMARK    9  A    between atoms: C_18  and  N_19
REMARK   10  A    between atoms: C_26  and  C_27
REMARK   11  A    between atoms: C_27  and  C_28
REMARK                            x       y       z     vdW  Elec       q    Type
REMARK                         _______ _______ _______ _____ _____    ______ ____
ROOT
ATOM      1  C   UNL     1       9.272  -0.798  -5.396  0.00  0.00    +0.154 C 
ATOM      2  N   UNL     1       8.837   0.248  -6.357  0.00  0.00    -0.337 N 
ATOM      3  C   UNL     1       7.528   0.246  -6.801  0.00  0.00    +0.071 C 
ATOM      4  C   UNL     1       6.783  -0.874  -6.789  0.00  0.00    -0.032 C 
ATOM      5  C   UNL     1       7.441  -2.129  -6.442  0.00  0.00    +0.030 C 
ATOM      6  C   UNL     1       8.678  -2.149  -5.899  0.00  0.00    +0.067 C 
ATOM      7  H   UNL     1       9.270   1.157  -6.235  0.00  0.00    +0.146 HD
ENDROOT
BRANCH   6   8
ATOM      8  N   UNL     1       9.420  -3.297  -5.685  0.00  0.00    -0.254 NA
ATOM      9  C   UNL     1       9.516  -4.255  -6.569  0.00  0.00    +0.045 C 
ATOM     10  C   UNL     1      10.297  -5.505  -6.112  0.00  0.00    +0.082 C 
ATOM     11  C   UNL     1      10.134  -6.710  -6.993  0.00  0.00    -0.021 C 
ATOM     12  C   UNL     1       9.474  -6.672  -8.159  0.00  0.00    -0.004 C 
ATOM     13  C   UNL     1       8.918  -5.441  -8.650  0.00  0.00    +0.001 C 
ATOM     14  C   UNL     1       8.954  -4.292  -7.963  0.00  0.00    +0.023 C 
ENDBRANCH   6   8
BRANCH   1  16
ATOM     15  C   UNL     1       8.079   0.593  -3.575  0.00  0.00    -0.012 C 
ATOM     16  C   UNL     1       8.840  -0.474  -3.943  0.00  0.00    +0.036 C 
BRANCH  16  17
ATOM     17  C   UNL     1       9.292  -1.434  -2.880  0.00  0.00    +0.239 C 
ATOM     18  O   UNL     1       8.672  -1.635  -1.836  0.00  0.00    -0.271 OA
ATOM     19  N   UNL     1      10.448  -2.119  -3.092  0.00  0.00    -0.326 N 
ATOM     20  H   UNL     1      10.779  -2.318  -4.027  0.00  0.00    +0.145 HD
ATOM     21  H   UNL     1      10.632  -2.840  -2.408  0.00  0.00    +0.145 HD
ENDBRANCH  16  17
BRANCH  15  22
ATOM     22  C   UNL     1       7.588   1.061  -2.219  0.00  0.00    +0.058 C 
BRANCH  22  24
ATOM     23  C   UNL     1       5.489   2.396  -1.910  0.00  0.00    -0.001 C 
ATOM     24  C   UNL     1       6.066   1.194  -2.137  0.00  0.00    -0.069 C 
ATOM     25  C   UNL     1       5.318  -0.114  -2.244  0.00  0.00    +0.039 C 
BRANCH  23  28
ATOM     26  C   UNL     1       2.092   4.090  -1.293  0.00  0.00    +0.035 C 
ATOM     27  C   UNL     1       3.562   3.874  -1.482  0.00  0.00    -0.030 C 
ATOM     28  C   UNL     1       4.074   2.660  -1.738  0.00  0.00    -0.005 C 
ENDBRANCH  23  28
ENDBRANCH  22  24
ENDBRANCH  15  22
ENDBRANCH   1  16
BRANCH   4  29
ATOM     29  C   UNL     1       5.315  -0.907  -7.095  0.00  0.00    +0.036 C 
BRANCH  29  30
ATOM     30  C   UNL     1       4.999  -0.914  -8.590  0.00  0.00    +0.001 C 
ATOM     31  C   UNL     1       3.493  -0.935  -8.809  0.00  0.00    +0.004 C 
ENDBRANCH  29  30
ENDBRANCH   4  29
TORSDOF 8
