REMARK  Name = 
REMARK  10 active torsions:
REMARK  status: ('A' for Active; 'I' for Inactive)
REMARK    1  A    between atoms: C_5  and  C_6
REMARK    2  A    between atoms: N_11  and  C_12
REMARK    3  A    between atoms: C_12  and  N_13
REMARK    4  A    between atoms: N_15  and  C_16
REMARK    5  A    between atoms: C_17  and  C_18
REMARK    6  A    between atoms: C_19  and  C_20
REMARK    7  A    between atoms: C_19  and  C_21
REMARK    8  A    between atoms: N_22  and  C_23
REMARK    9  A    between atoms: C_23  and  C_24
REMARK   10  A    between atoms: C_24  and  C_25
REMARK                            x       y       z     vdW  Elec       q    Type
REMARK                         _______ _______ _______ _____ _____    ______ ____
ROOT
ATOM      1  N   UNL     1       0.722   3.675   1.406  0.00  0.00    -0.205 NA
ATOM      2  C   UNL     1       0.890   4.533   2.209  0.00  0.00    +0.097 C 
ATOM      3  N   UNL     1       1.047   5.412   2.967  0.00  0.00    -0.195 NA
ENDROOT
BRANCH   3   4
ATOM      4  C   UNL     1      -0.111   5.996   3.473  0.00  0.00    +0.123 C 
ATOM      5  C   UNL     1      -0.125   6.562   4.699  0.00  0.00    +0.021 C 
BRANCH   5   6
ATOM      6  C   UNL     1      -1.264   7.134   5.435  0.00  0.00    +0.006 C 
ATOM      7  C   UNL     1      -1.207   7.671   6.682  0.00  0.00    -0.033 C 
ATOM      8  C   UNL     1       0.025   7.828   7.532  0.00  0.00    +0.045 C 
BRANCH   7   9
ATOM      9  C   UNL     1      -2.456   8.180   7.377  0.00  0.00    +0.108 C 
ATOM     10  N   UNL     1      -2.425   8.687   8.566  0.00  0.00    -0.291 NA
BRANCH  10  11
ATOM     11  C   UNL     1      -3.699   9.147   9.139  0.00  0.00    +0.144 C 
BRANCH  11  12
ATOM     12  C   UNL     1      -3.431  10.318  10.099  0.00  0.00    +0.057 C 
BRANCH  12  13
ATOM     13  C   UNL     1      -2.799  11.504   9.389  0.00  0.00    +0.215 C 
ATOM     14  F   UNL     1      -3.637  11.941   8.411  0.00  0.00    -0.249 F 
ENDBRANCH  12  13
ENDBRANCH  11  12
ENDBRANCH  10  11
ENDBRANCH   7   9
ENDBRANCH   5   6
ENDBRANCH   3   4
BRANCH   1  15
ATOM     15  C   UNL     1       1.752   2.621   1.265  0.00  0.00    +0.262 C 
BRANCH  15  26
ATOM     16  C   UNL     1       1.381   2.053  -1.163  0.00  0.00    +0.269 C 
ATOM     17  O   UNL     1       2.444   1.544  -1.995  0.00  0.00    -0.361 OA
ATOM     18  C   UNL     1       2.459   0.130  -2.215  0.00  0.00    +0.162 C 
ATOM     19  C   UNL     1       3.639  -0.472  -1.440  0.00  0.00    +0.031 C 
ATOM     20  C   UNL     1       3.489  -1.984  -1.139  0.00  0.00    -0.012 C 
ATOM     21  C   UNL     1       4.623  -2.734  -1.849  0.00  0.00    +0.007 C 
ATOM     22  C   UNL     1       3.517  -2.328   0.379  0.00  0.00    +0.007 C 
ATOM     23  C   UNL     1       2.242  -1.950   1.161  0.00  0.00    +0.029 C 
ATOM     24  C   UNL     1       2.121  -0.466   1.282  0.00  0.00    -0.012 C 
ATOM     25  C   UNL     1       1.280   0.259   0.534  0.00  0.00    +0.070 C 
ATOM     26  N   UNL     1       1.435   1.602   0.238  0.00  0.00    -0.293 N 
ENDBRANCH  15  26
ENDBRANCH   1  15
TORSDOF 8
