REMARK  Name = 
REMARK  2 active torsions:
REMARK  status: ('A' for Active; 'I' for Inactive)
REMARK    1  A    between atoms: C_6  and  C_7
REMARK    2  A    between atoms: N_8  and  C_9
REMARK                            x       y       z     vdW  Elec       q    Type
REMARK                         _______ _______ _______ _____ _____    ______ ____
ROOT
ATOM      1  C   UNL     1       0.818   1.239  -0.284  0.00  0.00    +0.031 C 
ATOM      2  C   UNL     1      -0.619   1.274   0.242  0.00  0.00    +0.102 C 
ATOM      3  N   UNL     1      -1.295   0.047  -0.149  0.00  0.00    -0.350 N 
ATOM      4  C   UNL     1      -0.662  -1.165  -0.051  0.00  0.00    +0.063 C 
ATOM      5  C   UNL     1       0.663  -1.275   0.091  0.00  0.00    -0.003 C 
ATOM      6  C   UNL     1       1.548  -0.056   0.120  0.00  0.00    +0.053 C 
ATOM      7  H   UNL     1      -2.302   0.026  -0.003  0.00  0.00    +0.146 HD
ENDROOT
BRANCH   6   8
ATOM      8  C   UNL     1       2.107   0.091   1.522  0.00  0.00    +0.081 C 
ATOM      9  N   UNL     1       3.387   0.107   1.712  0.00  0.00    -0.195 NA
BRANCH   9  10
ATOM     10  C   UNL     1       3.806   0.283   3.007  0.00  0.00    +0.350 C 
ATOM     11  O   UNL     1       3.090   0.489   3.982  0.00  0.00    -0.277 OA
ENDBRANCH   9  10
ENDBRANCH   6   8
TORSDOF 2
