REMARK  Name = 
REMARK  3 active torsions:
REMARK  status: ('A' for Active; 'I' for Inactive)
REMARK    1  A    between atoms: C_1  and  N_2
REMARK    2  A    between atoms: N_2  and  C_3
REMARK    3  A    between atoms: N_5  and  C_6
REMARK                            x       y       z     vdW  Elec       q    Type
REMARK                         _______ _______ _______ _____ _____    ______ ____
ROOT
ATOM      1  C   UNL     1       5.357   2.367  -0.402  0.00  0.00    +0.120 C 
ATOM      2  C   UNL     1       6.688   2.462  -0.265  0.00  0.00    +0.002 C 
ATOM      3  C   UNL     1       7.561   1.327  -0.011  0.00  0.00    +0.012 C 
ATOM      4  C   UNL     1       8.803   1.722   0.295  0.00  0.00    +0.028 C 
ATOM      5  C   UNL     1       8.844   3.209   0.248  0.00  0.00    +0.062 C 
ATOM      6  N   UNL     1       9.837   3.950   0.584  0.00  0.00    -0.299 NA
ATOM      7  C   UNL     1       7.501   3.655  -0.243  0.00  0.00    +0.001 C 
ATOM      8  C   UNL     1       7.248   4.912  -0.629  0.00  0.00    +0.019 C 
ATOM      9  H   UNL     1      10.613   3.373   0.912  0.00  0.00    +0.187 HD
ENDROOT
BRANCH   1  14
ATOM     10  C   UNL     1       1.194   0.099  -0.396  0.00  0.00    +0.129 C 
ATOM     11  N   UNL     1       2.638   0.034  -0.310  0.00  0.00    -0.327 N 
ATOM     12  C   UNL     1       3.260  -1.258  -0.068  0.00  0.00    +0.129 C 
ATOM     13  C   UNL     1       3.421   1.162  -0.393  0.00  0.00    +0.183 C 
ATOM     14  N   UNL     1       4.710   1.160  -0.326  0.00  0.00    -0.248 NA
ENDBRANCH   1  14
TORSDOF 1
