REMARK  Name = 
REMARK  21 active torsions:
REMARK  status: ('A' for Active; 'I' for Inactive)
REMARK    1  A    between atoms: C_1  and  N_2
REMARK    2  A    between atoms: N_2  and  C_3
REMARK    3  A    between atoms: C_4  and  C_5
REMARK    4  A    between atoms: C_5  and  C_6
REMARK    5  A    between atoms: C_5  and  C_7
REMARK    6  A    between atoms: C_7  and  C_9
REMARK    7  A    between atoms: C_14  and  C_15
REMARK    8  A    between atoms: C_15  and  C_16
REMARK    9  A    between atoms: C_15  and  N_17
REMARK   10  A    between atoms: C_18  and  C_19
REMARK   11  A    between atoms: C_20  and  N_21
REMARK   12  A    between atoms: C_22  and  C_23
REMARK   13  A    between atoms: C_23  and  C_24
REMARK   14  A    between atoms: C_24  and  C_25
REMARK   15  A    between atoms: N_26  and  C_27
REMARK   16  A    between atoms: C_27  and  C_28
REMARK   17  A    between atoms: C_27  and  N_29
REMARK   18  A    between atoms: N_29  and  C_30
REMARK   19  A    between atoms: C_30  and  C_31
REMARK   20  A    between atoms: C_31  and  C_32
REMARK   21  A    between atoms: C_33  and  C_34
REMARK                            x       y       z     vdW  Elec       q    Type
REMARK                         _______ _______ _______ _____ _____    ______ ____
ROOT
ATOM      1  N   UNL     1       8.541   4.802   3.064  0.00  0.00    -0.281 NA
ATOM      2  C   UNL     1       8.647   6.080   3.142  0.00  0.00    +0.107 C 
ENDROOT
BRANCH   2   3
ATOM      3  C   UNL     1       7.485   6.995   3.222  0.00  0.00    +0.039 C 
ATOM      4  C   UNL     1       6.228   6.534   3.252  0.00  0.00    +0.112 C 
BRANCH   4   5
ATOM      5  N   UNL     1       5.161   7.389   3.348  0.00  0.00    -0.267 NA
ATOM      6  C   UNL     1       4.044   6.953   2.863  0.00  0.00    +0.084 C 
BRANCH   6   7
ATOM      7  C   UNL     1       2.803   7.807   2.926  0.00  0.00    +0.053 C 
BRANCH   7   8
ATOM      8  C   UNL     1       3.011   9.137   2.217  0.00  0.00    +0.052 C 
BRANCH   8   9
ATOM      9  C   UNL     1       3.339   8.977   0.755  0.00  0.00    +0.080 C 
ATOM     10  N   UNL     1       2.937   7.945   0.099  0.00  0.00    -0.277 NA
BRANCH  10  11
ATOM     11  C   UNL     1       3.295   7.937  -1.312  0.00  0.00    +0.169 C 
ATOM     12  C   UNL     1       4.582   7.126  -1.463  0.00  0.00    +0.050 C 
BRANCH  11  13
ATOM     13  N   UNL     1       2.237   7.298  -2.084  0.00  0.00    -0.295 NA
ATOM     14  H   UNL     1       2.106   6.369  -1.686  0.00  0.00    +0.124 HD
BRANCH  13  15
ATOM     15  C   UNL     1       0.948   8.001  -2.000  0.00  0.00    +0.087 C 
BRANCH  15  16
ATOM     16  C   UNL     1       0.975   9.421  -2.585  0.00  0.00    +0.042 C 
BRANCH  16  17
ATOM     17  C   UNL     1      -0.367  10.092  -2.486  0.00  0.00    -0.030 C 
ATOM     18  C   UNL     1      -1.051  10.553  -3.543  0.00  0.00    -0.034 C 
ATOM     19  C   UNL     1      -2.372  11.241  -3.441  0.00  0.00    +0.035 C 
ENDBRANCH  16  17
ENDBRANCH  15  16
ENDBRANCH  13  15
ENDBRANCH  11  13
ENDBRANCH  10  11
ENDBRANCH   8   9
ENDBRANCH   7   8
ENDBRANCH   6   7
ENDBRANCH   4   5
ENDBRANCH   2   3
BRANCH   1  20
ATOM     20  C   UNL     1       9.812   4.051   3.022  0.00  0.00    +0.167 C 
ATOM     21  C   UNL     1      10.224   3.868   1.561  0.00  0.00    +0.041 C 
BRANCH  20  27
ATOM     22  C   UNL     1      10.715   0.969   5.043  0.00  0.00    +0.222 C 
ATOM     23  O   UNL     1      10.789   2.201   4.283  0.00  0.00    -0.483 OA
ATOM     24  C   UNL     1       9.389   0.251   4.997  0.00  0.00    +0.021 C 
ATOM     25  C   UNL     1       8.328   0.770   4.377  0.00  0.00    +0.003 C 
ATOM     26  C   UNL     1       8.460   2.044   3.732  0.00  0.00    +0.043 C 
ATOM     27  C   UNL     1       9.636   2.696   3.691  0.00  0.00    +0.123 C 
BRANCH  22  28
ATOM     28  C   UNL     1      11.122   1.265   6.483  0.00  0.00    -0.026 C 
ATOM     29  C   UNL     1      10.445   2.175   7.214  0.00  0.00    +0.012 C 
BRANCH  28  30
ATOM     30  C   UNL     1      12.324   0.523   7.061  0.00  0.00    +0.039 C 
ATOM     31  C   UNL     1      13.611   0.878   6.306  0.00  0.00    +0.016 C 
BRANCH  30  33
ATOM     32  C   UNL     1      12.097  -1.759   8.146  0.00  0.00    +0.063 C 
ATOM     33  C   UNL     1      12.140  -0.980   7.062  0.00  0.00    -0.005 C 
BRANCH  32  35
ATOM     34  C   UNL     1      11.946  -3.998   9.277  0.00  0.00    +0.125 C 
ATOM     35  N   UNL     1      11.990  -3.124   8.130  0.00  0.00    -0.353 N 
ATOM     36  H   UNL     1      12.002  -3.571   7.216  0.00  0.00    +0.145 HD
ENDBRANCH  32  35
ENDBRANCH  30  33
ENDBRANCH  28  30
ENDBRANCH  22  28
ENDBRANCH  20  27
ENDBRANCH   1  20
TORSDOF 16
