REMARK  Name = 
REMARK  5 active torsions:
REMARK  status: ('A' for Active; 'I' for Inactive)
REMARK    1  A    between atoms: C_1  and  O_2
REMARK    2  A    between atoms: O_2  and  C_3
REMARK    3  A    between atoms: C_4  and  C_5
REMARK    4  A    between atoms: C_6  and  C_7
REMARK    5  A    between atoms: C_7  and  C_8
REMARK                            x       y       z     vdW  Elec       q    Type
REMARK                         _______ _______ _______ _____ _____    ______ ____
ROOT
ATOM      1  C   UNL     1      12.079  -2.152   4.936  0.00  0.00    +0.066 C 
ATOM      2  C   UNL     1      13.905  -2.382   5.725  0.00  0.00    +0.049 C 
ATOM      3  C   UNL     1      15.695  -2.207   6.337  0.00  0.00    -0.024 C 
ATOM      4  C   UNL     1      17.013  -2.075   6.834  0.00  0.00    +0.015 C 
ATOM      5  C   UNL     1      18.202  -1.658   8.063  0.00  0.00    +0.104 C 
ATOM      6  N   UNL     1      18.460  -0.631   8.825  0.00  0.00    -0.289 NA
ATOM      7  C   UNL     1      11.521  -0.719   4.429  0.00  0.00    +0.034 C 
ATOM      8  C   UNL     1      11.488  -0.343   3.130  0.00  0.00    +0.031 C 
ATOM      9  N   UNL     1      10.718   0.097   5.242  0.00  0.00    -0.241 N 
ATOM     10  N   UNL     1      11.138   1.332   5.600  0.00  0.00    -0.195 NA
ATOM     11  C   UNL     1      12.259   1.193   6.220  0.00  0.00    +0.103 C 
ATOM     12  C   UNL     1      13.542   1.119   5.458  0.00  0.00    +0.051 C 
ATOM     13  C   UNL     1      14.548   0.987   6.540  0.00  0.00    +0.034 C 
ATOM     14  C   UNL     1      15.904   1.105   5.943  0.00  0.00    +0.160 C 
ATOM     15  O   UNL     1      16.601   1.765   6.965  0.00  0.00    -0.378 OA
ATOM     16  C   UNL     1      17.780   1.119   7.338  0.00  0.00    +0.183 C 
ATOM     17  C   UNL     1      17.542   0.473   8.697  0.00  0.00    +0.169 C 
ATOM     18  H   UNL     1      10.005  -0.344   5.823  0.00  0.00    +0.174 HD
ENDROOT
BRANCH   1  19
ATOM     19  C   UNL     1      11.393  -2.286   6.305  0.00  0.00    +0.091 C 
ATOM     20  N   UNL     1      10.804  -3.346   6.750  0.00  0.00    -0.310 NA
ATOM     21  H   UNL     1      10.381  -3.138   7.666  0.00  0.00    +0.186 HD
ENDBRANCH   1  19
BRANCH   1  23
ATOM     22  C   UNL     1       9.665  -2.921   2.977  0.00  0.00    -0.000 C 
ATOM     23  C   UNL     1      10.802  -3.131   3.931  0.00  0.00    -0.008 C 
BRANCH  22  25
ATOM     24  C   UNL     1       7.136  -3.273   1.576  0.00  0.00    +0.186 C 
ATOM     25  C   UNL     1       7.924  -3.020   2.744  0.00  0.00    +0.037 C 
BRANCH  24  27
ATOM     26  C   UNL     1       4.357  -3.284   0.915  0.00  0.00    +0.276 C 
ATOM     27  O   UNL     1       5.822  -3.338   1.084  0.00  0.00    -0.503 OA
ENDBRANCH  24  27
ENDBRANCH  22  25
ENDBRANCH   1  23
TORSDOF 4
