REMARK  Name = 
REMARK  4 active torsions:
REMARK  status: ('A' for Active; 'I' for Inactive)
REMARK    1  A    between atoms: C_8  and  N_9
REMARK    2  A    between atoms: N_9  and  N_10
REMARK    3  A    between atoms: N_10  and  C_11
REMARK    4  A    between atoms: C_11  and  C_12
REMARK                            x       y       z     vdW  Elec       q    Type
REMARK                         _______ _______ _______ _____ _____    ______ ____
ROOT
ATOM      1  C   UNL     1       1.063   1.548   0.929  0.00  0.00    +0.080 C 
ATOM      2  C   UNL     1       0.888   3.045   1.981  0.00  0.00    -0.025 C 
ATOM      3  C   UNL     1       1.543   4.031   2.676  0.00  0.00    -0.029 C 
ATOM      4  C   UNL     1       3.010   3.883   2.447  0.00  0.00    +0.045 C 
ATOM      5  C   UNL     1       4.250   3.111   2.096  0.00  0.00    +0.105 C 
ATOM      6  N   UNL     1       3.698   1.880   1.713  0.00  0.00    -0.348 N 
ATOM      7  C   UNL     1       3.688   1.229   0.564  0.00  0.00    +0.087 C 
ATOM      8  C   UNL     1       2.528   0.648   0.248  0.00  0.00    +0.036 C 
ATOM      9  H   UNL     1       2.755   1.792   2.071  0.00  0.00    +0.146 HD
ENDROOT
BRANCH   8  10
ATOM     10  N   UNL     1       2.859  -0.714  -0.401  0.00  0.00    -0.283 N 
ATOM     11  H   UNL     1       2.564  -1.609   0.014  0.00  0.00    +0.166 HD
BRANCH  10  12
ATOM     12  N   UNL     1       3.059  -0.706  -2.047  0.00  0.00    -0.243 NA
ATOM     13  H   UNL     1       3.393   0.235  -2.282  0.00  0.00    +0.144 HD
BRANCH  12  14
ATOM     14  C   UNL     1       3.951  -1.641  -2.799  0.00  0.00    +0.098 C 
ATOM     15  C   UNL     1       3.551  -3.151  -2.607  0.00  0.00    +0.022 C 
ENDBRANCH  12  14
ENDBRANCH  10  12
ENDBRANCH   8  10
TORSDOF 3
