REMARK  Name = 
REMARK  9 active torsions:
REMARK  status: ('A' for Active; 'I' for Inactive)
REMARK    1  A    between atoms: C_3  and  C_12
REMARK    2  A    between atoms: C_5  and  C_6
REMARK    3  A    between atoms: C_6  and  N_7
REMARK    4  A    between atoms: N_7  and  C_8
REMARK    5  A    between atoms: C_9  and  C_10
REMARK    6  A    between atoms: C_13  and  C_14
REMARK    7  A    between atoms: C_16  and  C_17
REMARK    8  A    between atoms: C_17  and  C_19
REMARK    9  A    between atoms: C_19  and  C_21
REMARK                            x       y       z     vdW  Elec       q    Type
REMARK                         _______ _______ _______ _____ _____    ______ ____
ROOT
ATOM      1  C   UNL     1       0.465  -0.465  -0.022  0.00  0.00    -0.028 C 
ATOM      2  C   UNL     1       1.224   0.587   0.009  0.00  0.00    -0.002 C 
ATOM      3  C   UNL     1      -0.096   1.078   0.110  0.00  0.00    +0.051 C 
ATOM      4  C   UNL     1      -1.395   0.368   0.010  0.00  0.00    -0.002 C 
ATOM      5  C   UNL     1      -0.908  -0.887   0.029  0.00  0.00    -0.029 C 
ENDROOT
BRANCH   3   6
ATOM      6  C   UNL     1      -0.023   2.517  -0.030  0.00  0.00    -0.007 C 
ATOM      7  C   UNL     1      -0.004   3.481   0.926  0.00  0.00    +0.005 C 
BRANCH   7   8
ATOM      8  C   UNL     1      -0.031   4.910   0.634  0.00  0.00    +0.051 C 
ATOM      9  C   UNL     1       0.024   5.811   1.581  0.00  0.00    -0.119 C 
ATOM     10  C   UNL     1       0.082   6.707   2.539  0.00  0.00    +0.059 C 
BRANCH  10  11
ATOM     11  C   UNL     1       0.945   6.599   3.741  0.00  0.00    -0.010 C 
ATOM     12  C   UNL     1       2.114   5.937   3.599  0.00  0.00    +0.018 C 
BRANCH  11  13
ATOM     13  C   UNL     1       0.623   7.216   5.074  0.00  0.00    +0.027 C 
ATOM     14  C   UNL     1      -0.636   7.380   5.513  0.00  0.00    +0.027 C 
BRANCH  13  15
ATOM     15  C   UNL     1       1.746   7.672   5.991  0.00  0.00    -0.031 C 
ATOM     16  C   UNL     1       2.709   8.062   6.778  0.00  0.00    +0.111 C 
ATOM     17  F   UNL     1       3.698   8.463   7.585  0.00  0.00    -0.143 F 
ENDBRANCH  13  15
ENDBRANCH  11  13
ENDBRANCH  10  11
ENDBRANCH   7   8
ENDBRANCH   3   6
BRANCH   5  18
ATOM     18  C   UNL     1      -1.681  -2.203  -0.027  0.00  0.00    +0.136 C 
BRANCH  18  19
ATOM     19  N   UNL     1      -1.434  -3.080   1.090  0.00  0.00    -0.345 N 
ATOM     20  H   UNL     1      -0.789  -2.780   1.817  0.00  0.00    +0.146 HD
BRANCH  19  21
ATOM     21  C   UNL     1      -2.051  -4.302   1.250  0.00  0.00    +0.067 C 
ATOM     22  C   UNL     1      -1.888  -5.172   2.261  0.00  0.00    +0.014 C 
BRANCH  22  23
ATOM     23  C   UNL     1      -2.571  -6.442   2.340  0.00  0.00    -0.006 C 
ATOM     24  C   UNL     1      -2.389  -7.291   3.357  0.00  0.00    +0.008 C 
ENDBRANCH  22  23
ENDBRANCH  19  21
ENDBRANCH  18  19
ENDBRANCH   5  18
TORSDOF 9
