REMARK  Name = 
REMARK  10 active torsions:
REMARK  status: ('A' for Active; 'I' for Inactive)
REMARK    1  A    between atoms: C_2  and  C_3
REMARK    2  A    between atoms: C_3  and  C_5
REMARK    3  A    between atoms: C_5  and  C_6
REMARK    4  A    between atoms: C_5  and  C_7
REMARK    5  A    between atoms: C_7  and  C_8
REMARK    6  A    between atoms: C_7  and  C_16
REMARK    7  A    between atoms: N_9  and  C_10
REMARK    8  A    between atoms: C_11  and  C_12
REMARK    9  A    between atoms: C_13  and  C_14
REMARK   10  A    between atoms: C_14  and  O_15
REMARK                            x       y       z     vdW  Elec       q    Type
REMARK                         _______ _______ _______ _____ _____    ______ ____
ROOT
ATOM      1  C   UNL     1       5.091   2.530  -1.399  0.00  0.00    +0.071 C 
ENDROOT
BRANCH   1   2
ATOM      2  C   UNL     1       6.601   2.613  -1.390  0.00  0.00    +0.033 C 
ATOM      3  C   UNL     1       7.369   2.534  -0.343  0.00  0.00    -0.131 C 
ATOM      4  C   UNL     1       8.143   2.460   0.695  0.00  0.00    +0.068 C 
ENDBRANCH   1   2
BRANCH   1   5
ATOM      5  C   UNL     1       4.550   1.241  -0.748  0.00  0.00    +0.069 C 
ATOM      6  C   UNL     1       5.046  -0.020  -1.467  0.00  0.00    +0.017 C 
BRANCH   5   7
ATOM      7  C   UNL     1       3.027   1.213  -0.786  0.00  0.00    +0.159 C 
ATOM      8  O   UNL     1       2.384   1.715  -1.705  0.00  0.00    -0.292 OA
BRANCH   7  10
ATOM      9  C   UNL     1       1.012   0.320   0.311  0.00  0.00    +0.012 C 
ATOM     10  C   UNL     1       2.339   0.494   0.329  0.00  0.00    +0.039 C 
ENDBRANCH   7  10
ENDBRANCH   5   7
ENDBRANCH   1   5
BRANCH   1  11
ATOM     11  C   UNL     1       4.592   3.791  -0.702  0.00  0.00    +0.092 C 
ATOM     12  N   UNL     1       4.414   4.880  -1.380  0.00  0.00    -0.267 NA
BRANCH  12  13
ATOM     13  C   UNL     1       4.001   5.986  -0.688  0.00  0.00    +0.110 C 
ATOM     14  C   UNL     1       3.825   7.161  -1.312  0.00  0.00    +0.019 C 
BRANCH  14  15
ATOM     15  C   UNL     1       3.375   8.369  -0.656  0.00  0.00    -0.001 C 
ATOM     16  C   UNL     1       3.199   9.529  -1.307  0.00  0.00    +0.001 C 
BRANCH  16  17
ATOM     17  C   UNL     1       2.703  10.783  -0.666  0.00  0.00    +0.183 C 
BRANCH  17  18
ATOM     18  O   UNL     1       3.686  11.794  -0.823  0.00  0.00    -0.391 OA
ATOM     19  H   UNL     1       4.500  11.459  -0.409  0.00  0.00    +0.210 HD
ENDBRANCH  17  18
ENDBRANCH  16  17
ENDBRANCH  14  15
ENDBRANCH  12  13
ENDBRANCH   1  11
TORSDOF 9
