REMARK  Name = 
REMARK  4 active torsions:
REMARK  status: ('A' for Active; 'I' for Inactive)
REMARK    1  A    between atoms: C_5  and  C_6
REMARK    2  A    between atoms: C_15  and  C_16
REMARK    3  A    between atoms: C_16  and  N_17
REMARK    4  A    between atoms: C_16  and  C_18
REMARK                            x       y       z     vdW  Elec       q    Type
REMARK                         _______ _______ _______ _____ _____    ______ ____
ROOT
ATOM      1  C   UNL     1      -2.581   0.838  -0.573  0.00  0.00    +0.035 C 
ATOM      2  C   UNL     1      -2.510   1.657  -1.643  0.00  0.00    -0.003 C 
ATOM      3  C   UNL     1      -1.551   1.378  -2.759  0.00  0.00    +0.031 C 
ATOM      4  C   UNL     1      -0.751   0.078  -2.555  0.00  0.00    +0.031 C 
ATOM      5  C   UNL     1      -0.781  -0.523  -1.113  0.00  0.00    +0.050 C 
ATOM      6  C   UNL     1      -0.372  -1.999  -1.206  0.00  0.00    +0.033 C 
ATOM      7  N   UNL     1      -2.254  -0.455  -0.610  0.00  0.00    -0.299 N 
ATOM      8  C   UNL     1      -2.349  -0.364   0.715  0.00  0.00    +0.082 C 
ATOM      9  C   UNL     1      -1.566   0.734   0.532  0.00  0.00    -0.000 C 
ATOM     10  C   UNL     1      -0.061   0.381   0.050  0.00  0.00    +0.042 C 
ATOM     11  C   UNL     1       0.654  -0.446   1.150  0.00  0.00    +0.018 C 
ATOM     12  C   UNL     1       2.021  -0.976   0.706  0.00  0.00    +0.005 C 
ATOM     13  C   UNL     1       2.770  -0.079  -0.283  0.00  0.00    +0.027 C 
ATOM     14  C   UNL     1       2.168   1.280  -0.477  0.00  0.00    -0.025 C 
ATOM     15  C   UNL     1       0.857   1.559  -0.291  0.00  0.00    -0.045 C 
ENDROOT
BRANCH  15  16
ATOM     16  C   UNL     1       0.367   3.001  -0.213  0.00  0.00    +0.075 C 
ATOM     17  C   UNL     1       1.126   4.023  -1.073  0.00  0.00    +0.028 C 
BRANCH  16  18
ATOM     18  N   UNL     1       0.436   3.464   1.176  0.00  0.00    -0.324 NA
ATOM     19  H   UNL     1       1.406   3.451   1.487  0.00  0.00    +0.119 HD
ATOM     20  H   UNL     1      -0.075   2.818   1.773  0.00  0.00    +0.119 HD
ENDBRANCH  16  18
ENDBRANCH  15  16
TORSDOF 2
