REMARK  Name = 
REMARK  10 active torsions:
REMARK  status: ('A' for Active; 'I' for Inactive)
REMARK    1  A    between atoms: N_2  and  C_3
REMARK    2  A    between atoms: C_14  and  C_15
REMARK    3  A    between atoms: C_15  and  O_16
REMARK    4  A    between atoms: C_15  and  N_17
REMARK    5  A    between atoms: C_18  and  C_19
REMARK    6  A    between atoms: C_19  and  N_20
REMARK    7  A    between atoms: C_19  and  C_21
REMARK    8  A    between atoms: C_21  and  C_22
REMARK    9  A    between atoms: C_22  and  C_23
REMARK   10  A    between atoms: C_23  and  C_24
REMARK                            x       y       z     vdW  Elec       q    Type
REMARK                         _______ _______ _______ _____ _____    ______ ____
ROOT
ATOM      1  C   UNL     1      -0.834   1.575  -0.844  0.00  0.00    +0.154 C 
ATOM      2  N   UNL     1      -0.347   0.846   0.302  0.00  0.00    -0.299 N 
ATOM      3  C   UNL     1      -1.247  -0.094   0.203  0.00  0.00    +0.096 C 
ATOM      4  C   UNL     1      -1.690   0.229  -1.051  0.00  0.00    +0.050 C 
ATOM      5  N   UNL     1      -2.436  -0.430  -1.940  0.00  0.00    -0.286 N 
ATOM      6  C   UNL     1      -3.558  -0.099  -2.720  0.00  0.00    +0.183 C 
ATOM      7  C   UNL     1      -4.671  -0.845  -2.690  0.00  0.00    +0.076 C 
ATOM      8  O   UNL     1      -3.525   0.839  -3.759  0.00  0.00    -0.450 OA
ATOM      9  C   UNL     1      -2.274   1.202  -4.173  0.00  0.00    +0.197 C 
ATOM     10  C   UNL     1      -1.672   2.166  -3.497  0.00  0.00    +0.038 C 
ATOM     11  C   UNL     1      -0.284   2.059  -3.208  0.00  0.00    +0.009 C 
ATOM     12  C   UNL     1       0.164   1.922  -1.928  0.00  0.00    +0.007 C 
ATOM     13  H   UNL     1      -2.500  -1.424  -1.742  0.00  0.00    +0.155 HD
ENDROOT
BRANCH   2  14
ATOM     14  C   UNL     1       0.558   1.076   1.303  0.00  0.00    +0.068 C 
ATOM     15  C   UNL     1       0.854   0.290   2.349  0.00  0.00    +0.025 C 
ENDBRANCH   2  14
BRANCH  12  16
ATOM     16  C   UNL     1       1.533   2.527  -1.621  0.00  0.00    +0.261 C 
BRANCH  16  17
ATOM     17  O   UNL     1       2.511   1.508  -1.597  0.00  0.00    -0.367 OA
ATOM     18  H   UNL     1       2.315   0.948  -2.366  0.00  0.00    +0.212 HD
ENDBRANCH  16  17
BRANCH  16  19
ATOM     19  N   UNL     1       1.758   3.528  -2.659  0.00  0.00    -0.259 NA
ATOM     20  C   UNL     1       2.821   4.231  -2.711  0.00  0.00    +0.099 C 
BRANCH  20  21
ATOM     21  C   UNL     1       3.028   5.152  -3.926  0.00  0.00    +0.092 C 
BRANCH  21  22
ATOM     22  N   UNL     1       2.334   4.560  -5.090  0.00  0.00    -0.323 NA
ATOM     23  H   UNL     1       1.350   4.465  -4.833  0.00  0.00    +0.119 HD
ATOM     24  H   UNL     1       2.651   3.588  -5.186  0.00  0.00    +0.119 HD
ENDBRANCH  21  22
BRANCH  21  25
ATOM     25  C   UNL     1       2.462   6.561  -3.718  0.00  0.00    +0.024 C 
BRANCH  25  26
ATOM     26  C   UNL     1       3.211   7.331  -2.630  0.00  0.00    +0.006 C 
BRANCH  26  27
ATOM     27  C   UNL     1       2.703   8.768  -2.520  0.00  0.00    +0.026 C 
BRANCH  27  28
ATOM     28  C   UNL     1       3.430   9.505  -1.432  0.00  0.00    -0.034 C 
ATOM     29  C   UNL     1       2.838  10.002  -0.339  0.00  0.00    +0.004 C 
ENDBRANCH  27  28
ENDBRANCH  26  27
ENDBRANCH  25  26
ENDBRANCH  21  25
ENDBRANCH  20  21
ENDBRANCH  16  19
ENDBRANCH  12  16
TORSDOF 10
