REMARK  Name = 
REMARK  1 active torsions:
REMARK  status: ('A' for Active; 'I' for Inactive)
REMARK    1  A    between atoms: C_17  and  C_18
REMARK                            x       y       z     vdW  Elec       q    Type
REMARK                         _______ _______ _______ _____ _____    ______ ____
ROOT
ATOM      1  C   UNL     1       2.167   2.745   1.322  0.00  0.00    +0.069 C 
ATOM      2  C   UNL     1       2.114   1.400   0.570  0.00  0.00    +0.164 C 
ATOM      3  O   UNL     1       3.589   1.260   0.892  0.00  0.00    -0.368 OA
ATOM      4  C   UNL     1       3.291   1.941   2.194  0.00  0.00    +0.107 C 
ATOM      5  C   UNL     1       4.492   2.673   3.166  0.00  0.00    +0.045 C 
ATOM      6  C   UNL     1       6.012   3.428   3.397  0.00  0.00    +0.031 C 
ATOM      7  C   UNL     1       6.877   3.426   4.887  0.00  0.00    -0.011 C 
ATOM      8  C   UNL     1       8.189   3.697   5.257  0.00  0.00    +0.077 C 
ATOM      9  N   UNL     1       8.980   3.608   6.533  0.00  0.00    -0.266 N 
ATOM     10  C   UNL     1      10.248   4.188   6.674  0.00  0.00    +0.183 C 
ATOM     11  N   UNL     1      11.181   4.200   7.599  0.00  0.00    -0.292 NA
ATOM     12  C   UNL     1       2.519   0.866   3.206  0.00  0.00    +0.118 C 
ATOM     13  N   UNL     1       2.753  -0.406   3.098  0.00  0.00    -0.263 NA
ATOM     14  C   UNL     1       3.028  -0.926   4.334  0.00  0.00    +0.130 C 
ATOM     15  C   UNL     1       4.308  -0.803   4.707  0.00  0.00    +0.132 C 
ATOM     16  N   UNL     1       4.822  -0.807   5.979  0.00  0.00    -0.238 NA
ATOM     17  C   UNL     1       5.962  -0.218   6.135  0.00  0.00    +0.136 C 
ATOM     18  C   UNL     1       6.809   0.346   4.993  0.00  0.00    +0.089 C 
ATOM     19  N   UNL     1       6.377  -0.013   7.430  0.00  0.00    -0.182 NA
ATOM     20  C   UNL     1       6.982   0.994   7.647  0.00  0.00    +0.042 C 
ATOM     21  C   UNL     1       7.690   1.963   7.671  0.00  0.00    -0.033 C 
ATOM     22  C   UNL     1       8.582   2.881   7.661  0.00  0.00    +0.143 C 
ATOM     23  H   UNL     1      10.964   3.662   8.436  0.00  0.00    +0.188 HD
ENDROOT
TORSDOF 0
