REMARK  Name = 
REMARK  17 active torsions:
REMARK  status: ('A' for Active; 'I' for Inactive)
REMARK    1  A    between atoms: C_2  and  C_3
REMARK    2  A    between atoms: C_4  and  N_5
REMARK    3  A    between atoms: N_5  and  C_6
REMARK    4  A    between atoms: C_7  and  C_8
REMARK    5  A    between atoms: C_7  and  N_10
REMARK    6  A    between atoms: N_10  and  C_11
REMARK    7  A    between atoms: C_12  and  C_13
REMARK    8  A    between atoms: C_13  and  C_15
REMARK    9  A    between atoms: C_16  and  C_17
REMARK   10  A    between atoms: C_17  and  C_18
REMARK   11  A    between atoms: C_17  and  C_19
REMARK   12  A    between atoms: C_20  and  C_21
REMARK   13  A    between atoms: C_21  and  C_22
REMARK   14  A    between atoms: C_22  and  C_23
REMARK   15  A    between atoms: C_23  and  C_24
REMARK   16  A    between atoms: C_24  and  C_25
REMARK   17  A    between atoms: C_27  and  C_28
REMARK                            x       y       z     vdW  Elec       q    Type
REMARK                         _______ _______ _______ _____ _____    ______ ____
ROOT
ATOM      1  C   UNL     1       4.997  -6.217   9.775  0.00  0.00    -0.031 C 
ATOM      2  C   UNL     1       5.197  -4.918  10.075  0.00  0.00    +0.017 C 
ENDROOT
BRANCH   1   4
ATOM      3  C   UNL     1       6.432  -6.324   7.747  0.00  0.00    +0.073 C 
ATOM      4  C   UNL     1       5.359  -6.726   8.445  0.00  0.00    +0.022 C 
BRANCH   3   5
ATOM      5  N   UNL     1       6.871  -6.737   6.512  0.00  0.00    -0.313 N 
ATOM      6  H   UNL     1       6.311  -7.455   6.060  0.00  0.00    +0.152 HD
BRANCH   5   8
ATOM      7  C   UNL     1       8.881  -5.376   6.143  0.00  0.00    +0.113 C 
ATOM      8  C   UNL     1       7.980  -6.319   5.796  0.00  0.00    +0.096 C 
BRANCH   7   9
ATOM      9  N   UNL     1       9.990  -4.939   5.461  0.00  0.00    -0.278 N 
ATOM     10  H   UNL     1      10.184  -5.375   4.564  0.00  0.00    +0.162 HD
BRANCH   9  12
ATOM     11  C   UNL     1      11.576  -3.051   6.420  0.00  0.00    -0.054 C 
ATOM     12  C   UNL     1      10.844  -3.907   6.003  0.00  0.00    +0.004 C 
BRANCH  11  14
ATOM     13  C   UNL     1      12.315  -1.432   8.051  0.00  0.00    +0.018 C 
ATOM     14  C   UNL     1      12.470  -2.043   6.871  0.00  0.00    +0.054 C 
ENDBRANCH  11  14
ENDBRANCH   9  12
ENDBRANCH   7   9
BRANCH   8  15
ATOM     15  C   UNL     1       8.124  -7.013   4.552  0.00  0.00    -0.053 C 
ATOM     16  C   UNL     1       8.286  -7.573   3.500  0.00  0.00    +0.011 C 
ENDBRANCH   8  15
ENDBRANCH   5   8
ENDBRANCH   3   5
ENDBRANCH   1   4
BRANCH   1  17
ATOM     17  C   UNL     1       4.256  -7.007  10.762  0.00  0.00    +0.004 C 
ATOM     18  C   UNL     1       4.366  -8.338  10.916  0.00  0.00    -0.019 C 
BRANCH  18  19
ATOM     19  C   UNL     1       3.609  -9.138  11.950  0.00  0.00    +0.031 C 
ATOM     20  C   UNL     1       2.746 -10.200  11.263  0.00  0.00    +0.016 C 
BRANCH  19  21
ATOM     21  C   UNL     1       4.563  -9.809  12.911  0.00  0.00    -0.024 C 
ATOM     22  C   UNL     1       4.552  -9.625  14.242  0.00  0.00    -0.030 C 
BRANCH  22  23
ATOM     23  C   UNL     1       5.479 -10.329  15.193  0.00  0.00    +0.027 C 
BRANCH  23  24
ATOM     24  C   UNL     1       4.692 -11.155  16.212  0.00  0.00    +0.004 C 
BRANCH  24  25
ATOM     25  C   UNL     1       5.622 -11.881  17.187  0.00  0.00    +0.005 C 
BRANCH  25  26
ATOM     26  C   UNL     1       4.820 -12.703  18.197  0.00  0.00    +0.035 C 
BRANCH  26  27
ATOM     27  C   UNL     1       5.719 -13.427  19.153  0.00  0.00    +0.024 C 
ATOM     28  C   UNL     1       5.754 -14.719  19.299  0.00  0.00    -0.129 C 
ATOM     29  C   UNL     1       5.787 -16.012  19.439  0.00  0.00    +0.020 C 
ATOM     30  C   UNL     1       6.949 -16.780  19.973  0.00  0.00    +0.044 C 
ENDBRANCH  26  27
ENDBRANCH  25  26
ENDBRANCH  24  25
ENDBRANCH  23  24
ENDBRANCH  22  23
ENDBRANCH  19  21
ENDBRANCH  18  19
ENDBRANCH   1  17
TORSDOF 15
