REMARK  Name = 
REMARK  13 active torsions:
REMARK  status: ('A' for Active; 'I' for Inactive)
REMARK    1  A    between atoms: C_1  and  C_2
REMARK    2  A    between atoms: C_2  and  C_3
REMARK    3  A    between atoms: C_17  and  C_18
REMARK    4  A    between atoms: C_19  and  C_20
REMARK    5  A    between atoms: C_19  and  C_21
REMARK    6  A    between atoms: C_22  and  C_23
REMARK    7  A    between atoms: C_22  and  C_24
REMARK    8  A    between atoms: C_24  and  C_25
REMARK    9  A    between atoms: N_26  and  C_27
REMARK   10  A    between atoms: C_28  and  N_29
REMARK   11  A    between atoms: C_28  and  C_32
REMARK   12  A    between atoms: C_32  and  C_33
REMARK   13  A    between atoms: C_34  and  C_35
REMARK                            x       y       z     vdW  Elec       q    Type
REMARK                         _______ _______ _______ _____ _____    ______ ____
ROOT
ATOM      1  C   UNL     1       8.655  -3.621  -2.333  0.00  0.00    +0.013 C 
ATOM      2  C   UNL     1       9.422  -3.428  -3.423  0.00  0.00    -0.050 C 
ATOM      3  C   UNL     1       8.928  -2.798  -4.694  0.00  0.00    +0.044 C 
ENDROOT
BRANCH   1  20
ATOM      4  C   UNL     1       1.384  -1.545  -1.156  0.00  0.00    +0.011 C 
ATOM      5  C   UNL     1       2.959  -1.528  -1.029  0.00  0.00    -0.031 C 
ATOM      6  C   UNL     1       3.158  -0.021  -0.585  0.00  0.00    +0.011 C 
ATOM      7  C   UNL     1       3.523  -2.272  -2.534  0.00  0.00    +0.043 C 
ATOM      8  C   UNL     1       4.811  -3.122  -3.270  0.00  0.00    -0.021 C 
ATOM      9  C   UNL     1       4.738  -3.281  -4.620  0.00  0.00    +0.006 C 
ATOM     10  C   UNL     1       5.626  -4.037  -5.504  0.00  0.00    +0.000 C 
ATOM     11  C   UNL     1       5.859  -5.361  -5.485  0.00  0.00    +0.001 C 
ATOM     12  C   UNL     1       5.253  -6.288  -4.557  0.00  0.00    +0.020 C 
ATOM     13  C   UNL     1       5.337  -6.150  -3.226  0.00  0.00    +0.111 C 
ATOM     14  N   UNL     1       6.167  -5.265  -2.606  0.00  0.00    -0.255 NA
ATOM     15  C   UNL     1       6.034  -3.965  -2.687  0.00  0.00    +0.074 C 
ATOM     16  C   UNL     1       3.465  -2.318   0.230  0.00  0.00    +0.007 C 
ATOM     17  C   UNL     1       4.956  -1.962   0.587  0.00  0.00    +0.005 C 
ATOM     18  C   UNL     1       5.659  -2.184  -0.707  0.00  0.00    +0.028 C 
ATOM     19  C   UNL     1       7.057  -2.390  -1.055  0.00  0.00    -0.017 C 
ATOM     20  C   UNL     1       7.268  -3.213  -2.100  0.00  0.00    -0.003 C 
ENDBRANCH   1  20
BRANCH   2  21
ATOM     21  C   UNL     1      10.864  -3.689  -3.419  0.00  0.00    +0.002 C 
ATOM     22  C   UNL     1      11.535  -4.824  -3.132  0.00  0.00    -0.067 C 
ATOM     23  C   UNL     1      10.916  -6.121  -2.690  0.00  0.00    +0.039 C 
BRANCH  22  24
ATOM     24  C   UNL     1      13.040  -4.884  -3.312  0.00  0.00    +0.077 C 
BRANCH  24  25
ATOM     25  C   UNL     1      13.461  -5.318  -4.706  0.00  0.00    +0.088 C 
ATOM     26  N   UNL     1      12.698  -6.049  -5.468  0.00  0.00    -0.265 NA
BRANCH  26  27
ATOM     27  C   UNL     1      13.197  -6.397  -6.697  0.00  0.00    +0.135 C 
ATOM     28  C   UNL     1      12.431  -6.680  -7.760  0.00  0.00    +0.081 C 
BRANCH  28  29
ATOM     29  N   UNL     1      11.045  -6.545  -7.704  0.00  0.00    -0.208 NA
ATOM     30  C   UNL     1      10.416  -7.263  -8.387  0.00  0.00    -0.020 C 
ATOM     31  C   UNL     1       9.705  -8.028  -9.159  0.00  0.00    +0.091 C 
ENDBRANCH  28  29
BRANCH  28  32
ATOM     32  C   UNL     1      13.111  -7.037  -9.078  0.00  0.00    +0.147 C 
BRANCH  32  33
ATOM     33  C   UNL     1      13.313  -8.491  -9.175  0.00  0.00    -0.082 C 
ATOM     34  C   UNL     1      13.436  -9.684  -9.210  0.00  0.00    -0.015 C 
BRANCH  34  35
ATOM     35  C   UNL     1      13.571 -11.220  -9.210  0.00  0.00    -0.018 C 
ATOM     36  C   UNL     1      13.662 -12.407  -9.181  0.00  0.00    +0.018 C 
ENDBRANCH  34  35
ENDBRANCH  32  33
ENDBRANCH  28  32
ENDBRANCH  26  27
ENDBRANCH  24  25
ENDBRANCH  22  24
ENDBRANCH   2  21
TORSDOF 9
