REMARK  Name = 
REMARK  2 active torsions:
REMARK  status: ('A' for Active; 'I' for Inactive)
REMARK    1  A    between atoms: C_1  and  C_2
REMARK    2  A    between atoms: C_2  and  C_3
REMARK                            x       y       z     vdW  Elec       q    Type
REMARK                         _______ _______ _______ _____ _____    ______ ____
ROOT
ATOM      1  C   UNL     1       2.985   5.599   0.429  0.00  0.00    +0.051 C 
ATOM      2  C   UNL     1       3.175   4.043   0.212  0.00  0.00    +0.046 C 
ATOM      3  C   UNL     1       1.843   3.324   0.006  0.00  0.00    -0.022 C 
ATOM      4  C   UNL     1       0.782   4.020  -0.456  0.00  0.00    -0.042 C 
ATOM      5  C   UNL     1       1.022   5.311  -1.084  0.00  0.00    +0.038 C 
ATOM      6  C   UNL     1       2.018   6.090  -0.645  0.00  0.00    +0.112 C 
ATOM      7  F   UNL     1       2.168   7.316  -1.194  0.00  0.00    -0.209 F 
ATOM      8  C   UNL     1      -0.666   3.718  -0.167  0.00  0.00    +0.111 C 
ATOM      9  C   UNL     1      -1.141   3.439   1.284  0.00  0.00    +0.136 C 
ATOM     10  N   UNL     1      -2.336   2.984   1.480  0.00  0.00    -0.285 NA
ATOM     11  N   UNL     1      -0.424   3.687   2.435  0.00  0.00    -0.182 NA
ATOM     12  C   UNL     1       0.417   4.506   2.440  0.00  0.00    +0.041 C 
ATOM     13  C   UNL     1       1.353   5.251   2.295  0.00  0.00    -0.053 C 
ATOM     14  C   UNL     1       2.387   5.895   1.825  0.00  0.00    +0.048 C 
ATOM     15  H   UNL     1      -2.827   2.874   0.590  0.00  0.00    +0.188 HD
ENDROOT
BRANCH   1  17
ATOM     16  C   UNL     1       5.439   5.974   1.197  0.00  0.00    +0.005 C 
ATOM     17  C   UNL     1       4.324   6.352   0.234  0.00  0.00    +0.015 C 
ENDBRANCH   1  17
TORSDOF 1
