REMARK  Name = 
REMARK  1 active torsions:
REMARK  status: ('A' for Active; 'I' for Inactive)
REMARK    1  A    between atoms: C_2  and  C_3
REMARK                            x       y       z     vdW  Elec       q    Type
REMARK                         _______ _______ _______ _____ _____    ______ ____
ROOT
ATOM      1  C   UNL     1       1.191   0.367  -0.000  0.00  0.00    +0.010 C 
ATOM      2  C   UNL     1       0.773  -0.915   0.001  0.00  0.00    -0.050 C 
ATOM      3  C   UNL     1       1.604  -2.145   0.003  0.00  0.00    +0.044 C 
ATOM      4  C   UNL     1      -0.685  -0.943   0.001  0.00  0.00    +0.004 C 
ATOM      5  C   UNL     1      -1.157   0.317  -0.000  0.00  0.00    +0.007 C 
ATOM      6  C   UNL     1      -0.001   1.191  -0.002  0.00  0.00    -0.032 C 
ATOM      7  C   UNL     1      -0.023   2.526  -0.005  0.00  0.00    +0.017 C 
ENDROOT
TORSDOF 0
