REMARK  Name = 
REMARK  1 active torsions:
REMARK  status: ('A' for Active; 'I' for Inactive)
REMARK    1  A    between atoms: C_6  and  C_7
REMARK                            x       y       z     vdW  Elec       q    Type
REMARK                         _______ _______ _______ _____ _____    ______ ____
ROOT
ATOM      1  C   UNL     1       0.242  -1.388   0.025  0.00  0.00    +0.259 C 
ATOM      2  O   UNL     1      -1.107  -0.887  -0.017  0.00  0.00    -0.495 OA
ATOM      3  C   UNL     1      -1.280   0.470  -0.006  0.00  0.00    +0.187 C 
ATOM      4  C   UNL     1      -0.298   1.375   0.003  0.00  0.00    +0.037 C 
ATOM      5  C   UNL     1       1.074   0.952  -0.006  0.00  0.00    +0.005 C 
ATOM      6  C   UNL     1       1.351  -0.361   0.002  0.00  0.00    -0.036 C 
ATOM      7  C   UNL     1       2.749  -0.897  -0.006  0.00  0.00    +0.042 C 
ENDROOT
TORSDOF 0
