REMARK  Name = 
REMARK  2 active torsions:
REMARK  status: ('A' for Active; 'I' for Inactive)
REMARK    1  A    between atoms: C_3  and  C_4
REMARK    2  A    between atoms: C_3  and  C_8
REMARK                            x       y       z     vdW  Elec       q    Type
REMARK                         _______ _______ _______ _____ _____    ______ ____
ROOT
ATOM      1  C   UNL     1       0.117   0.970  -0.203  0.00  0.00    +0.012 C 
ATOM      2  C   UNL     1       0.847  -0.335  -0.079  0.00  0.00    +0.012 C 
ATOM      3  C   UNL     1      -0.661  -0.296   0.085  0.00  0.00    -0.006 C 
ATOM      4  C   UNL     1      -1.482  -0.883  -1.037  0.00  0.00    +0.016 C 
ENDROOT
BRANCH   3   5
ATOM      5  C   UNL     1      -1.164  -0.536   1.391  0.00  0.00    -0.034 C 
ATOM      6  C   UNL     1      -1.406  -1.441   2.329  0.00  0.00    +0.012 C 
ATOM      7  C   UNL     1      -1.853  -0.038   2.427  0.00  0.00    -0.028 C 
ATOM      8  C   UNL     1      -2.490   0.845   3.156  0.00  0.00    +0.017 C 
ENDBRANCH   3   5
TORSDOF 1
