REMARK  Name = 
REMARK  17 active torsions:
REMARK  status: ('A' for Active; 'I' for Inactive)
REMARK    1  A    between atoms: C_1  and  C_2
REMARK    2  A    between atoms: C_2  and  N_3
REMARK    3  A    between atoms: N_3  and  C_4
REMARK    4  A    between atoms: N_3  and  O_5
REMARK    5  A    between atoms: O_5  and  C_6
REMARK    6  A    between atoms: C_7  and  C_8
REMARK    7  A    between atoms: C_8  and  C_10
REMARK    8  A    between atoms: C_11  and  N_12
REMARK    9  A    between atoms: C_16  and  C_23
REMARK   10  A    between atoms: C_18  and  C_19
REMARK   11  A    between atoms: C_20  and  C_21
REMARK   12  A    between atoms: C_23  and  C_24
REMARK   13  A    between atoms: C_23  and  C_25
REMARK   14  A    between atoms: C_23  and  C_26
REMARK   15  A    between atoms: C_26  and  C_27
REMARK   16  A    between atoms: C_27  and  C_29
REMARK   17  A    between atoms: C_29  and  C_30
REMARK                            x       y       z     vdW  Elec       q    Type
REMARK                         _______ _______ _______ _____ _____    ______ ____
ROOT
ATOM      1  N   UNL     1      10.846   4.862  -1.412  0.00  0.00    -0.237 NA
ATOM      2  C   UNL     1      11.486   3.932  -2.065  0.00  0.00    +0.138 A 
ATOM      3  N   UNL     1      12.848   4.137  -2.060  0.00  0.00    -0.346 N 
ATOM      4  C   UNL     1      13.758   3.209  -2.482  0.00  0.00    +0.088 A 
ATOM      5  C   UNL     1      13.405   2.044  -3.059  0.00  0.00    -0.025 A 
ATOM      6  C   UNL     1      11.953   1.828  -3.232  0.00  0.00    +0.017 A 
ATOM      7  C   UNL     1      10.991   2.673  -2.778  0.00  0.00    +0.018 A 
ATOM      8  H   UNL     1      13.166   4.906  -1.482  0.00  0.00    +0.167 HD
ENDROOT
BRANCH   5   9
ATOM      9  C   UNL     1      14.422   0.950  -3.511  0.00  0.00    -0.002 C 
ATOM     10  C   UNL     1      15.872   1.413  -3.200  0.00  0.00    +0.016 C 
ATOM     11  C   UNL     1      14.135  -0.331  -2.695  0.00  0.00    +0.016 C 
BRANCH   9  12
ATOM     12  C   UNL     1      14.300   0.667  -5.042  0.00  0.00    +0.085 C 
BRANCH  12  13
ATOM     13  C   UNL     1      15.264  -0.375  -5.624  0.00  0.00    +0.134 C 
ATOM     14  O   UNL     1      16.071  -1.000  -4.938  0.00  0.00    -0.297 OA
BRANCH  13  15
ATOM     15  C   UNL     1      15.166  -0.631  -7.119  0.00  0.00    +0.071 C 
ATOM     16  C   UNL     1      16.192  -1.656  -7.582  0.00  0.00    +0.012 C 
ENDBRANCH  13  15
ENDBRANCH  12  13
ENDBRANCH   9  12
ENDBRANCH   5   9
BRANCH   1  18
ATOM     17  C   UNL     1       8.852   5.970  -0.855  0.00  0.00    +0.027 C 
ATOM     18  C   UNL     1       9.513   4.837  -1.140  0.00  0.00    +0.113 C 
BRANCH  17  19
ATOM     19  C   UNL     1       7.463   6.011  -0.434  0.00  0.00    -0.028 C 
ATOM     20  C   UNL     1       6.596   6.672  -1.221  0.00  0.00    +0.017 C 
BRANCH  19  22
ATOM     21  C   UNL     1       7.634   5.099   1.862  0.00  0.00    +0.218 C 
ATOM     22  C   UNL     1       6.953   5.292   0.725  0.00  0.00    +0.047 C 
BRANCH  21  23
ATOM     23  O   UNL     1       7.107   4.361   2.895  0.00  0.00    -0.412 OA
BRANCH  23  24
ATOM     24  N   UNL     1       7.629   4.876   4.157  0.00  0.00    -0.146 NA
ATOM     25  C   UNL     1       8.350   3.747   4.748  0.00  0.00    +0.151 C 
BRANCH  24  27
ATOM     26  C   UNL     1       5.668   6.382   4.411  0.00  0.00    +0.024 C 
ATOM     27  C   UNL     1       6.431   5.179   4.957  0.00  0.00    +0.123 C 
ENDBRANCH  24  27
ENDBRANCH  23  24
ENDBRANCH  21  23
ENDBRANCH  19  22
ENDBRANCH  17  19
ENDBRANCH   1  18
BRANCH   7  28
ATOM     28  C   UNL     1       9.597   2.462  -3.122  0.00  0.00    +0.014 C 
ATOM     29  C   UNL     1       8.918   1.343  -2.825  0.00  0.00    +0.043 C 
BRANCH  29  30
ATOM     30  C   UNL     1       7.516   1.182  -3.264  0.00  0.00    +0.251 C 
ATOM     31  O   UNL     1       6.865   0.190  -2.963  0.00  0.00    -0.296 OA
ENDBRANCH  29  30
ENDBRANCH   7  28
TORSDOF 12
