REMARK  Name = 
REMARK  0 active torsions:
REMARK  status: ('A' for Active; 'I' for Inactive)
REMARK                            x       y       z     vdW  Elec       q    Type
REMARK                         _______ _______ _______ _____ _____    ______ ____
ROOT
ATOM      1  C   UNL     1       1.348   0.682   0.127  0.00  0.00    +0.009 C 
ATOM      2  C   UNL     1       2.049   1.853   0.055  0.00  0.00    +0.009 C 
ATOM      3  C   UNL     1       3.282   1.106  -0.014  0.00  0.00    -0.018 A 
ATOM      4  C   UNL     1       4.633   1.184  -0.111  0.00  0.00    +0.008 A 
ATOM      5  C   UNL     1       5.283  -0.058  -0.137  0.00  0.00    +0.001 A 
ATOM      6  C   UNL     1       4.553  -1.280  -0.062  0.00  0.00    +0.001 A 
ATOM      7  C   UNL     1       3.155  -1.289   0.042  0.00  0.00    +0.008 A 
ATOM      8  C   UNL     1       2.586  -0.057   0.057  0.00  0.00    -0.018 A 
ENDROOT
TORSDOF 0
