REMARK  Name = 
REMARK  4 active torsions:
REMARK  status: ('A' for Active; 'I' for Inactive)
REMARK    1  A    between atoms: C_7  and  C_8
REMARK    2  A    between atoms: C_9  and  C_10
REMARK    3  A    between atoms: C_10  and  C_11
REMARK    4  A    between atoms: C_10  and  C_12
REMARK                            x       y       z     vdW  Elec       q    Type
REMARK                         _______ _______ _______ _____ _____    ______ ____
ROOT
ATOM      1  C   UNL     1       1.719   0.293   1.182  0.00  0.00    -0.012 C 
ATOM      2  C   UNL     1       3.028   0.373   0.701  0.00  0.00    +0.057 C 
ATOM      3  C   UNL     1       3.947  -0.041   1.666  0.00  0.00    -0.017 C 
ATOM      4  C   UNL     1       3.665  -0.224   3.033  0.00  0.00    +0.005 C 
ATOM      5  C   UNL     1       2.361  -0.097   3.469  0.00  0.00    +0.051 C 
ATOM      6  C   UNL     1       1.365   0.120   2.528  0.00  0.00    -0.119 C 
ATOM      7  C   UNL     1       1.976   1.463   0.413  0.00  0.00    +0.057 C 
ENDROOT
BRANCH   7   8
ATOM      8  C   UNL     1       1.672   2.755   1.047  0.00  0.00    -0.022 C 
ATOM      9  C   UNL     1       2.476   3.799   1.319  0.00  0.00    -0.028 C 
BRANCH   9  10
ATOM     10  C   UNL     1       1.949   5.201   1.607  0.00  0.00    +0.005 C 
ATOM     11  C   UNL     1       2.343   5.738   2.981  0.00  0.00    +0.011 C 
ATOM     12  C   UNL     1       2.441   6.170   0.524  0.00  0.00    +0.011 C 
ENDBRANCH   9  10
ENDBRANCH   7   8
TORSDOF 2
