REMARK  Name = 
REMARK  11 active torsions:
REMARK  status: ('A' for Active; 'I' for Inactive)
REMARK    1  A    between atoms: C_1  and  N_2
REMARK    2  A    between atoms: N_2  and  C_3
REMARK    3  A    between atoms: C_4  and  C_5
REMARK    4  A    between atoms: C_6  and  C_7
REMARK    5  A    between atoms: C_7  and  C_8
REMARK    6  A    between atoms: C_8  and  C_9
REMARK    7  A    between atoms: C_9  and  C_18
REMARK    8  A    between atoms: C_10  and  C_11
REMARK    9  A    between atoms: C_11  and  C_13
REMARK   10  A    between atoms: C_16  and  C_17
REMARK   11  A    between atoms: C_24  and  C_25
REMARK                            x       y       z     vdW  Elec       q    Type
REMARK                         _______ _______ _______ _____ _____    ______ ____
ROOT
ATOM      1  C   UNL     1       9.773  -1.774   6.047  0.00  0.00    -0.035 C 
ATOM      2  C   UNL     1       8.927  -1.475   7.067  0.00  0.00    +0.055 C 
ENDROOT
BRANCH   1   3
ATOM      3  C   UNL     1      11.151  -2.264   6.458  0.00  0.00    -0.004 C 
ATOM      4  C   UNL     1      12.223  -1.426   6.350  0.00  0.00    +0.118 C 
ATOM      5  N   UNL     1      13.529  -1.319   6.774  0.00  0.00    -0.263 NA
ATOM      6  C   UNL     1      14.540  -2.087   7.052  0.00  0.00    +0.110 C 
ATOM      7  C   UNL     1      14.817  -3.536   7.053  0.00  0.00    +0.016 C 
ATOM      8  C   UNL     1      15.389  -4.077   8.159  0.00  0.00    -0.018 C 
ATOM      9  C   UNL     1      14.968  -5.475   8.639  0.00  0.00    +0.031 C 
ATOM     10  C   UNL     1      15.811  -6.036   9.790  0.00  0.00    +0.016 C 
ATOM     11  C   UNL     1      13.516  -5.313   9.110  0.00  0.00    -0.020 C 
ATOM     12  C   UNL     1      12.552  -5.190   8.177  0.00  0.00    -0.004 C 
ATOM     13  C   UNL     1      11.629  -4.053   8.191  0.00  0.00    +0.000 C 
ATOM     14  C   UNL     1      11.282  -3.621   6.964  0.00  0.00    +0.010 C 
ENDBRANCH   1   3
BRANCH   2  15
ATOM     15  C   UNL     1       7.497  -1.014   7.021  0.00  0.00    +0.181 C 
ATOM     16  O   UNL     1       6.840  -0.891   5.997  0.00  0.00    -0.288 OA
BRANCH  15  17
ATOM     17  C   UNL     1       6.912  -0.758   8.354  0.00  0.00    +0.080 C 
ATOM     18  C   UNL     1       5.602  -0.542   8.456  0.00  0.00    +0.089 C 
ATOM     19  N   UNL     1       5.233  -0.322   9.863  0.00  0.00    -0.248 NA
ATOM     20  C   UNL     1       4.348  -0.278   8.992  0.00  0.00    +0.064 C 
ATOM     21  C   UNL     1       2.963  -0.056   8.652  0.00  0.00    +0.068 C 
ENDBRANCH  15  17
ENDBRANCH   2  15
BRANCH   1  22
ATOM     22  C   UNL     1       9.443  -1.489   4.579  0.00  0.00    +0.040 C 
BRANCH  22  23
ATOM     23  C   UNL     1       9.405  -2.587   3.488  0.00  0.00    +0.032 C 
BRANCH  23  25
ATOM     24  C   UNL     1       7.295  -3.994   4.099  0.00  0.00    -0.003 C 
ATOM     25  C   UNL     1       8.362  -3.676   3.348  0.00  0.00    -0.026 C 
BRANCH  24  27
ATOM     26  C   UNL     1       5.384  -5.498   4.539  0.00  0.00    +0.067 C 
ATOM     27  C   UNL     1       6.432  -5.132   3.792  0.00  0.00    +0.014 C 
BRANCH  26  29
ATOM     28  C   UNL     1       3.460  -6.963   5.217  0.00  0.00    +0.125 C 
ATOM     29  N   UNL     1       4.549  -6.573   4.346  0.00  0.00    -0.353 N 
ATOM     30  H   UNL     1       4.781  -7.214   3.589  0.00  0.00    +0.145 HD
ENDBRANCH  26  29
ENDBRANCH  24  27
ENDBRANCH  23  25
ENDBRANCH  22  23
ENDBRANCH   1  22
TORSDOF 8
