REMARK  Name = 
REMARK  15 active torsions:
REMARK  status: ('A' for Active; 'I' for Inactive)
REMARK    1  A    between atoms: C_6  and  C_7
REMARK    2  A    between atoms: C_6  and  C_13
REMARK    3  A    between atoms: C_7  and  C_8
REMARK    4  A    between atoms: C_8  and  N_9
REMARK    5  A    between atoms: N_9  and  N_10
REMARK    6  A    between atoms: C_11  and  C_12
REMARK    7  A    between atoms: C_13  and  C_14
REMARK    8  A    between atoms: C_15  and  C_16
REMARK    9  A    between atoms: C_17  and  N_18
REMARK   10  A    between atoms: C_19  and  C_20
REMARK   11  A    between atoms: C_19  and  C_23
REMARK   12  A    between atoms: C_20  and  C_21
REMARK   13  A    between atoms: C_24  and  C_25
REMARK   14  A    between atoms: C_26  and  C_27
REMARK   15  A    between atoms: C_27  and  C_28
REMARK                            x       y       z     vdW  Elec       q    Type
REMARK                         _______ _______ _______ _____ _____    ______ ____
ROOT
ATOM      1  C   UNL     1       8.133  -2.317   1.634  0.00  0.00    +0.019 C 
ATOM      2  C   UNL     1       9.028  -2.363   2.630  0.00  0.00    +0.111 C 
ENDROOT
BRANCH   1   4
ATOM      3  C   UNL     1       5.721  -2.199   1.133  0.00  0.00    -0.022 C 
ATOM      4  C   UNL     1       6.788  -1.834   1.860  0.00  0.00    -0.002 C 
BRANCH   3   5
ATOM      5  C   UNL     1       4.321  -1.715   1.420  0.00  0.00    +0.066 C 
BRANCH   5  11
ATOM      6  C   UNL     1       2.155  -3.652   5.234  0.00  0.00    +0.008 C 
ATOM      7  C   UNL     1       1.055  -3.097   5.793  0.00  0.00    -0.021 C 
ATOM      8  C   UNL     1       0.810  -2.170   4.619  0.00  0.00    +0.070 C 
ATOM      9  C   UNL     1       2.067  -2.808   4.071  0.00  0.00    -0.002 C 
ATOM     10  C   UNL     1       2.732  -2.794   2.970  0.00  0.00    -0.117 C 
ATOM     11  C   UNL     1       3.364  -2.824   1.825  0.00  0.00    -0.022 C 
BRANCH  11  12
ATOM     12  C   UNL     1       3.060  -3.868   0.758  0.00  0.00    +0.059 C 
BRANCH  12  13
ATOM     13  C   UNL     1       1.997  -4.915   1.136  0.00  0.00    +0.127 C 
BRANCH  13  14
ATOM     14  N   UNL     1       1.740  -5.838   0.024  0.00  0.00    -0.269 N 
ATOM     15  H   UNL     1       2.613  -6.153  -0.403  0.00  0.00    +0.168 HD
BRANCH  14  16
ATOM     16  N   UNL     1       0.863  -6.833   0.294  0.00  0.00    -0.200 NA
ATOM     17  C   UNL     1       0.740  -7.716  -0.643  0.00  0.00    +0.099 C 
ATOM     18  C   UNL     1      -0.258  -8.824  -0.503  0.00  0.00    +0.058 C 
ENDBRANCH  14  16
ENDBRANCH  13  14
ENDBRANCH  12  13
ENDBRANCH  11  12
ENDBRANCH   5  11
ENDBRANCH   3   5
ENDBRANCH   1   4
BRANCH   2  19
ATOM     19  N   UNL     1      10.314  -2.795   2.466  0.00  0.00    -0.259 NA
ATOM     20  C   UNL     1      10.945  -3.353   3.468  0.00  0.00    +0.053 C 
BRANCH  20  21
ATOM     21  C   UNL     1      12.371  -3.734   3.201  0.00  0.00    +0.024 C 
ATOM     22  C   UNL     1      13.308  -3.803   4.154  0.00  0.00    +0.001 C 
BRANCH  22  23
ATOM     23  C   UNL     1      14.670  -4.194   3.886  0.00  0.00    -0.004 C 
ATOM     24  C   UNL     1      15.606  -4.237   4.855  0.00  0.00    -0.026 C 
BRANCH  24  25
ATOM     25  C   UNL     1      17.013  -4.731   4.646  0.00  0.00    +0.038 C 
BRANCH  25  26
ATOM     26  C   UNL     1      17.374  -5.951   5.526  0.00  0.00    +0.055 C 
ATOM     27  C   UNL     1      16.451  -7.168   5.232  0.00  0.00    +0.038 C 
ATOM     28  C   UNL     1      15.663  -7.692   6.402  0.00  0.00    -0.026 C 
ATOM     29  C   UNL     1      15.784  -7.203   7.643  0.00  0.00    -0.002 C 
ATOM     30  C   UNL     1      16.704  -6.137   7.940  0.00  0.00    +0.034 C 
ATOM     31  C   UNL     1      17.443  -5.560   6.985  0.00  0.00    +0.104 C 
ATOM     32  F   UNL     1      18.289  -4.569   7.348  0.00  0.00    -0.210 F 
ENDBRANCH  25  26
ENDBRANCH  24  25
ENDBRANCH  22  23
ENDBRANCH  20  21
BRANCH  20  33
ATOM     33  C   UNL     1      10.346  -3.718   4.828  0.00  0.00    +0.143 C 
BRANCH  33  34
ATOM     34  C   UNL     1      10.517  -2.667   5.848  0.00  0.00    -0.099 C 
ATOM     35  C   UNL     1      10.656  -1.856   6.724  0.00  0.00    +0.004 C 
ENDBRANCH  33  34
ENDBRANCH  20  33
ENDBRANCH   2  19
TORSDOF 14
