REMARK  Name = 
REMARK  0 active torsions:
REMARK  status: ('A' for Active; 'I' for Inactive)
REMARK                            x       y       z     vdW  Elec       q    Type
REMARK                         _______ _______ _______ _____ _____    ______ ____
ROOT
ATOM      1  C   UNL     1      -2.039  -0.989  -0.001  0.00  0.00    +0.008 C 
ATOM      2  C   UNL     1      -0.939  -1.764  -0.004  0.00  0.00    +0.009 C 
ATOM      3  C   UNL     1       0.230  -0.886  -0.012  0.00  0.00    -0.017 A 
ATOM      4  C   UNL     1       1.573  -1.220  -0.025  0.00  0.00    +0.008 A 
ATOM      5  C   UNL     1       2.510  -0.180  -0.017  0.00  0.00    +0.001 A 
ATOM      6  C   UNL     1       2.095   1.163   0.008  0.00  0.00    +0.001 A 
ATOM      7  C   UNL     1       0.736   1.493   0.014  0.00  0.00    +0.009 A 
ATOM      8  C   UNL     1      -0.183   0.459  -0.003  0.00  0.00    -0.011 A 
ATOM      9  C   UNL     1      -1.646   0.411  -0.014  0.00  0.00    -0.024 C 
ATOM     10  C   UNL     1      -2.484   1.451  -0.053  0.00  0.00    +0.017 C 
ENDROOT
TORSDOF 0
