REMARK  Name = 
REMARK  9 active torsions:
REMARK  status: ('A' for Active; 'I' for Inactive)
REMARK    1  A    between atoms: C_2  and  C_10
REMARK    2  A    between atoms: N_7  and  C_8
REMARK    3  A    between atoms: C_11  and  C_12
REMARK    4  A    between atoms: C_12  and  C_14
REMARK    5  A    between atoms: C_15  and  C_16
REMARK    6  A    between atoms: C_19  and  C_20
REMARK    7  A    between atoms: C_20  and  C_21
REMARK    8  A    between atoms: C_21  and  C_22
REMARK    9  A    between atoms: C_22  and  C_23
REMARK                            x       y       z     vdW  Elec       q    Type
REMARK                         _______ _______ _______ _____ _____    ______ ____
ROOT
ATOM      1  C   UNL     1      -5.020   1.019  -0.301  0.00  0.00    -0.032 C 
ATOM      2  C   UNL     1      -5.635  -0.165  -0.522  0.00  0.00    +0.017 C 
ENDROOT
BRANCH   1   4
ATOM      3  C   UNL     1      -2.820   0.117   0.399  0.00  0.00    +0.008 C 
ATOM      4  C   UNL     1      -3.552   1.083  -0.182  0.00  0.00    +0.008 C 
BRANCH   3   6
ATOM      5  C   UNL     1      -0.340   0.914   0.196  0.00  0.00    +0.033 A 
ATOM      6  C   UNL     1      -1.362  -0.026   0.591  0.00  0.00    -0.023 A 
ATOM      7  C   UNL     1      -0.953  -1.201   1.227  0.00  0.00    +0.010 A 
ATOM      8  C   UNL     1       0.384  -1.389   1.427  0.00  0.00    +0.026 A 
ATOM      9  C   UNL     1       1.141  -0.369   0.938  0.00  0.00    +0.060 A 
ATOM     10  C   UNL     1       1.022   0.809   0.325  0.00  0.00    +0.060 A 
ATOM     11  N   UNL     1       2.259   0.237   0.613  0.00  0.00    -0.273 N 
BRANCH  11  12
ATOM     12  C   UNL     1       3.219  -0.709   0.842  0.00  0.00    +0.073 C 
ATOM     13  C   UNL     1       4.543  -0.519   0.903  0.00  0.00    +0.025 C 
ENDBRANCH  11  12
ENDBRANCH   3   6
ENDBRANCH   1   4
BRANCH   1  14
ATOM     14  C   UNL     1      -5.886   2.197  -0.391  0.00  0.00    +0.007 C 
ATOM     15  C   UNL     1      -5.699   3.374   0.229  0.00  0.00    +0.001 C 
BRANCH  15  16
ATOM     16  C   UNL     1      -6.655   4.460   0.091  0.00  0.00    +0.008 C 
ATOM     17  C   UNL     1      -6.505   5.640   0.684  0.00  0.00    -0.022 C 
ATOM     18  C   UNL     1      -7.680   6.442   0.293  0.00  0.00    +0.012 C 
ATOM     19  C   UNL     1      -6.790   6.961   1.058  0.00  0.00    -0.040 C 
BRANCH  19  20
ATOM     20  C   UNL     1      -6.360   8.124   1.811  0.00  0.00    +0.036 C 
BRANCH  20  21
ATOM     21  C   UNL     1      -5.012   8.660   1.324  0.00  0.00    +0.004 C 
BRANCH  21  22
ATOM     22  C   UNL     1      -4.598   9.920   2.087  0.00  0.00    -0.003 C 
ATOM     23  C   UNL     1      -3.251  10.436   1.606  0.00  0.00    +0.004 C 
ENDBRANCH  21  22
ENDBRANCH  20  21
ENDBRANCH  19  20
ENDBRANCH  15  16
ENDBRANCH   1  14
TORSDOF 8
