REMARK  Name = 
REMARK  12 active torsions:
REMARK  status: ('A' for Active; 'I' for Inactive)
REMARK    1  A    between atoms: C_6  and  C_12
REMARK    2  A    between atoms: C_16  and  C_17
REMARK    3  A    between atoms: C_18  and  N_19
REMARK    4  A    between atoms: N_19  and  C_20
REMARK    5  A    between atoms: C_20  and  C_21
REMARK    6  A    between atoms: C_20  and  C_22
REMARK    7  A    between atoms: C_23  and  C_24
REMARK    8  A    between atoms: C_27  and  C_28
REMARK    9  A    between atoms: C_30  and  C_31
REMARK   10  A    between atoms: C_32  and  C_33
REMARK   11  A    between atoms: C_33  and  C_34
REMARK   12  A    between atoms: C_33  and  C_35
REMARK                            x       y       z     vdW  Elec       q    Type
REMARK                         _______ _______ _______ _____ _____    ______ ____
ROOT
ATOM      1  C   UNL     1       6.687   1.456  -1.097  0.00  0.00    +0.042 C 
ATOM      2  C   UNL     1       7.718   2.088  -1.697  0.00  0.00    +0.070 C 
ENDROOT
BRANCH   1  16
ATOM      3  C   UNL     1       0.396   0.287  -0.072  0.00  0.00    +0.008 C 
ATOM      4  C   UNL     1       0.956   1.198  -0.888  0.00  0.00    -0.073 C 
ATOM      5  C   UNL     1      -0.283   2.125  -1.666  0.00  0.00    +0.034 C 
ATOM      6  C   UNL     1      -0.041   3.264  -2.738  0.00  0.00    +0.033 C 
ATOM      7  C   UNL     1      -0.688   4.338  -3.684  0.00  0.00    -0.004 C 
ATOM      8  C   UNL     1       0.113   5.177  -4.442  0.00  0.00    +0.026 C 
ATOM      9  N   UNL     1       1.524   5.186  -4.457  0.00  0.00    -0.321 N 
ATOM     10  C   UNL     1       2.421   4.402  -3.837  0.00  0.00    +0.073 C 
ATOM     11  C   UNL     1       3.732   4.328  -3.713  0.00  0.00    +0.035 C 
ATOM     12  C   UNL     1       4.055   3.256  -2.735  0.00  0.00    +0.112 C 
ATOM     13  N   UNL     1       5.156   2.768  -2.309  0.00  0.00    -0.256 NA
ATOM     14  C   UNL     1       2.513   1.352  -1.192  0.00  0.00    +0.059 C 
ATOM     15  C   UNL     1       4.074   1.062  -0.778  0.00  0.00    +0.005 C 
ATOM     16  C   UNL     1       5.178   1.733  -1.355  0.00  0.00    +0.061 C 
ATOM     17  H   UNL     1       1.945   5.917  -5.008  0.00  0.00    +0.152 HD
BRANCH   8  18
ATOM     18  C   UNL     1      -0.486   6.217  -5.346  0.00  0.00    +0.015 C 
ATOM     19  C   UNL     1       0.190   7.083  -6.135  0.00  0.00    +0.010 C 
ENDBRANCH   8  18
ENDBRANCH   1  16
BRANCH   2  20
ATOM     20  N   UNL     1       9.108   1.948  -1.560  0.00  0.00    -0.344 N 
ATOM     21  H   UNL     1       9.421   1.266  -0.875  0.00  0.00    +0.146 HD
BRANCH  20  22
ATOM     22  C   UNL     1      10.183   2.703  -2.254  0.00  0.00    +0.090 C 
ATOM     23  C   UNL     1      10.967   3.558  -1.245  0.00  0.00    +0.032 C 
BRANCH  22  24
ATOM     24  C   UNL     1      11.190   1.795  -2.942  0.00  0.00    -0.005 C 
ATOM     25  C   UNL     1      11.142   0.457  -2.985  0.00  0.00    -0.002 C 
BRANCH  25  26
ATOM     26  C   UNL     1      12.149  -0.445  -3.502  0.00  0.00    +0.004 C 
ATOM     27  C   UNL     1      12.291  -1.719  -3.084  0.00  0.00    -0.040 C 
ATOM     28  C   UNL     1      13.166  -2.763  -3.751  0.00  0.00    +0.043 C 
ATOM     29  C   UNL     1      12.468  -4.091  -3.415  0.00  0.00    +0.013 C 
ATOM     30  C   UNL     1      13.433  -5.240  -3.143  0.00  0.00    +0.012 C 
ATOM     31  C   UNL     1      11.691  -3.735  -2.193  0.00  0.00    -0.015 C 
ATOM     32  C   UNL     1      11.601  -2.410  -1.986  0.00  0.00    -0.026 C 
BRANCH  32  33
ATOM     33  C   UNL     1      11.100  -1.849  -0.740  0.00  0.00    +0.004 C 
ATOM     34  C   UNL     1      10.517  -2.561   0.237  0.00  0.00    -0.023 C 
BRANCH  34  35
ATOM     35  C   UNL     1      10.062  -2.025   1.563  0.00  0.00    +0.006 C 
ATOM     36  C   UNL     1       8.550  -2.208   1.639  0.00  0.00    +0.011 C 
ATOM     37  C   UNL     1      10.763  -2.784   2.693  0.00  0.00    +0.011 C 
ENDBRANCH  34  35
ENDBRANCH  32  33
ENDBRANCH  25  26
ENDBRANCH  22  24
ENDBRANCH  20  22
ENDBRANCH   2  20
TORSDOF 8
