REMARK  Name = 
REMARK  5 active torsions:
REMARK  status: ('A' for Active; 'I' for Inactive)
REMARK    1  A    between atoms: C_6  and  C_7
REMARK    2  A    between atoms: C_7  and  C_8
REMARK    3  A    between atoms: N_9  and  N_10
REMARK    4  A    between atoms: C_11  and  C_12
REMARK    5  A    between atoms: C_15  and  C_16
REMARK                            x       y       z     vdW  Elec       q    Type
REMARK                         _______ _______ _______ _____ _____    ______ ____
ROOT
ATOM      1  C   UNL     1       4.141  -0.675   0.459  0.00  0.00    +0.108 C 
ATOM      2  N   UNL     1       5.303  -1.132   0.114  0.00  0.00    -0.192 NA
ENDROOT
BRANCH   2   3
ATOM      3  N   UNL     1       6.276  -0.200  -0.103  0.00  0.00    -0.226 N 
ATOM      4  C   UNL     1       6.506   0.964   0.783  0.00  0.00    +0.099 C 
ATOM      5  C   UNL     1       6.994   0.499   2.156  0.00  0.00    +0.030 C 
ATOM      6  C   UNL     1       7.610   1.735   0.017  0.00  0.00    +0.053 C 
ATOM      7  C   UNL     1       8.203   0.676  -0.869  0.00  0.00    -0.005 C 
ATOM      8  C   UNL     1       7.407  -0.405  -0.891  0.00  0.00    +0.022 C 
ATOM      9  C   UNL     1       7.678  -1.671  -1.626  0.00  0.00    +0.062 C 
ENDBRANCH   2   3
BRANCH   1  10
ATOM     10  C   UNL     1       2.970  -1.596   0.692  0.00  0.00    +0.083 C 
BRANCH  10  16
ATOM     11  C   UNL     1       2.378  -1.964  -1.812  0.00  0.00    +0.264 C 
ATOM     12  O   UNL     1       1.196  -1.735  -2.582  0.00  0.00    -0.457 OA
ATOM     13  C   UNL     1       0.242  -1.180  -1.794  0.00  0.00    +0.332 C 
ATOM     14  O   UNL     1      -0.880  -0.860  -2.141  0.00  0.00    -0.246 OA
ATOM     15  C   UNL     1       0.770  -1.029  -0.437  0.00  0.00    +0.094 C 
ATOM     16  C   UNL     1       2.018  -1.493  -0.457  0.00  0.00    -0.021 C 
ENDBRANCH  10  16
ENDBRANCH   1  10
TORSDOF 3
