REMARK  Name = 
REMARK  10 active torsions:
REMARK  status: ('A' for Active; 'I' for Inactive)
REMARK    1  A    between atoms: C_4  and  N_10
REMARK    2  A    between atoms: C_6  and  C_7
REMARK    3  A    between atoms: N_10  and  C_11
REMARK    4  A    between atoms: C_12  and  C_13
REMARK    5  A    between atoms: C_13  and  N_14
REMARK    6  A    between atoms: C_13  and  C_15
REMARK    7  A    between atoms: C_16  and  C_17
REMARK    8  A    between atoms: C_18  and  C_19
REMARK    9  A    between atoms: C_20  and  C_21
REMARK   10  A    between atoms: C_21  and  C_22
REMARK                            x       y       z     vdW  Elec       q    Type
REMARK                         _______ _______ _______ _____ _____    ______ ____
ROOT
ATOM      1  C   UNL     1      -2.010   0.163  -0.153  0.00  0.00    +0.069 C 
ATOM      2  C   UNL     1      -3.351   0.150  -0.151  0.00  0.00    +0.011 C 
ENDROOT
BRANCH   1   3
ATOM      3  N   UNL     1      -1.049  -0.545  -0.854  0.00  0.00    -0.320 N 
ATOM      4  H   UNL     1      -1.379  -1.390  -1.314  0.00  0.00    +0.152 HD
BRANCH   3   8
ATOM      5  C   UNL     1       3.303   1.426  -1.511  0.00  0.00    +0.121 C 
ATOM      6  S   UNL     1       2.444   1.356   0.114  0.00  0.00    -0.126 S 
ATOM      7  C   UNL     1       0.868   0.794  -0.349  0.00  0.00    +0.064 C 
ATOM      8  C   UNL     1       0.363  -0.418  -0.724  0.00  0.00    +0.039 C 
ATOM      9  C   UNL     1       1.118  -1.681  -1.008  0.00  0.00    +0.046 C 
ATOM     10  C   UNL     1       2.402  -1.915  -1.394  0.00  0.00    +0.040 C 
ATOM     11  C   UNL     1       2.959  -3.296  -1.632  0.00  0.00    +0.065 C 
ATOM     12  N   UNL     1       3.363  -0.944  -1.460  0.00  0.00    -0.264 NA
ATOM     13  C   UNL     1       3.001   0.099  -2.130  0.00  0.00    +0.095 C 
ENDBRANCH   3   8
ENDBRANCH   1   3
BRANCH   2  14
ATOM     14  C   UNL     1      -4.119   0.990   0.858  0.00  0.00    +0.098 C 
BRANCH  14  15
ATOM     15  N   UNL     1      -4.976   1.969   0.204  0.00  0.00    -0.321 NA
ATOM     16  H   UNL     1      -5.597   1.492  -0.447  0.00  0.00    +0.119 HD
ATOM     17  H   UNL     1      -4.409   2.612  -0.345  0.00  0.00    +0.119 HD
ENDBRANCH  14  15
BRANCH  14  18
ATOM     18  C   UNL     1      -4.954   0.185   1.823  0.00  0.00    -0.004 C 
ATOM     19  C   UNL     1      -5.048  -1.156   1.858  0.00  0.00    -0.002 C 
BRANCH  19  20
ATOM     20  C   UNL     1      -5.842  -1.862   2.834  0.00  0.00    +0.009 C 
ATOM     21  C   UNL     1      -5.954  -3.197   2.872  0.00  0.00    +0.060 C 
BRANCH  21  22
ATOM     22  C   UNL     1      -6.733  -3.842   3.882  0.00  0.00    -0.074 C 
ATOM     23  C   UNL     1      -7.364  -4.398   4.727  0.00  0.00    -0.098 C 
BRANCH  23  24
ATOM     24  C   UNL     1      -8.125  -5.116   5.766  0.00  0.00    +0.086 C 
ATOM     25  C   UNL     1      -9.035  -4.181   6.544  0.00  0.00    +0.017 C 
ENDBRANCH  23  24
ENDBRANCH  21  22
ENDBRANCH  19  20
ENDBRANCH  14  18
ENDBRANCH   2  14
TORSDOF 8
