REMARK  Name = 
REMARK  1 active torsions:
REMARK  status: ('A' for Active; 'I' for Inactive)
REMARK    1  A    between atoms: C_18  and  C_19
REMARK                            x       y       z     vdW  Elec       q    Type
REMARK                         _______ _______ _______ _____ _____    ______ ____
ROOT
ATOM      1  C   UNL     1       2.854   4.171  -3.287  0.00  0.00    +0.003 C 
ATOM      2  C   UNL     1       3.523   3.711  -4.387  0.00  0.00    -0.021 C 
ATOM      3  C   UNL     1       3.018   2.529  -5.093  0.00  0.00    +0.053 C 
ATOM      4  C   UNL     1       1.857   1.723  -4.488  0.00  0.00    +0.027 C 
ATOM      5  C   UNL     1       1.121   2.444  -3.383  0.00  0.00    -0.022 C 
ATOM      6  C   UNL     1       1.610   3.568  -2.844  0.00  0.00    -0.004 C 
ATOM      7  C   UNL     1       0.996   1.374  -5.721  0.00  0.00    +0.035 C 
ATOM      8  C   UNL     1       1.637   2.118  -6.891  0.00  0.00    -0.025 C 
ATOM      9  C   UNL     1       2.442   3.084  -6.384  0.00  0.00    -0.049 C 
ATOM     10  C   UNL     1       2.197   4.639  -6.407  0.00  0.00    +0.138 C 
ATOM     11  N   UNL     1       3.308   5.404  -5.618  0.00  0.00    -0.306 N 
ATOM     12  C   UNL     1       3.967   6.644  -5.917  0.00  0.00    +0.096 C 
ATOM     13  C   UNL     1       5.268   6.429  -6.323  0.00  0.00    +0.045 C 
ATOM     14  N   UNL     1       4.700   5.170  -6.576  0.00  0.00    -0.318 N 
ATOM     15  C   UNL     1       4.477   4.511  -5.288  0.00  0.00    +0.126 C 
ATOM     16  C   UNL     1       5.574   3.546  -5.988  0.00  0.00    +0.078 C 
ATOM     17  C   UNL     1       6.797   4.428  -6.514  0.00  0.00    -0.018 C 
ATOM     18  C   UNL     1       6.595   5.798  -6.627  0.00  0.00    -0.032 C 
ATOM     19  C   UNL     1       7.725   6.643  -7.134  0.00  0.00    +0.045 C 
ATOM     20  H   UNL     1       4.010   5.169  -7.299  0.00  0.00    +0.148 HD
ENDROOT
TORSDOF 0
