REMARK  Name = 
REMARK  16 active torsions:
REMARK  status: ('A' for Active; 'I' for Inactive)
REMARK    1  A    between atoms: C_2  and  C_3
REMARK    2  A    between atoms: C_7  and  C_15
REMARK    3  A    between atoms: C_8  and  C_9
REMARK    4  A    between atoms: C_10  and  C_11
REMARK    5  A    between atoms: C_12  and  C_13
REMARK    6  A    between atoms: C_15  and  C_17
REMARK    7  A    between atoms: C_17  and  C_18
REMARK    8  A    between atoms: C_18  and  N_19
REMARK    9  A    between atoms: N_19  and  C_20
REMARK   10  A    between atoms: N_24  and  C_25
REMARK   11  A    between atoms: C_26  and  C_27
REMARK   12  A    between atoms: C_28  and  C_29
REMARK   13  A    between atoms: C_29  and  N_30
REMARK   14  A    between atoms: N_30  and  C_31
REMARK   15  A    between atoms: C_31  and  C_32
REMARK   16  A    between atoms: C_31  and  C_33
REMARK                            x       y       z     vdW  Elec       q    Type
REMARK                         _______ _______ _______ _____ _____    ______ ____
ROOT
ATOM      1  C   UNL     1       8.887   2.291   3.156  0.00  0.00    +0.107 C 
ENDROOT
BRANCH   1   2
ATOM      2  N   UNL     1       9.746   2.345   4.353  0.00  0.00    -0.332 N 
ATOM      3  H   UNL     1       9.332   3.027   4.987  0.00  0.00    +0.147 HD
BRANCH   2   4
ATOM      4  C   UNL     1      10.036   1.198   5.065  0.00  0.00    +0.086 C 
ATOM      5  C   UNL     1       9.326   0.828   6.141  0.00  0.00    +0.014 C 
ATOM      6  C   UNL     1       9.755  -0.496   6.669  0.00  0.00    +0.049 C 
ATOM      7  C   UNL     1      11.104  -0.679   5.982  0.00  0.00    +0.116 C 
ATOM      8  N   UNL     1      11.056   0.270   4.852  0.00  0.00    -0.295 N 
BRANCH   8   9
ATOM      9  C   UNL     1      12.010   0.286   3.852  0.00  0.00    +0.076 C 
ATOM     10  C   UNL     1      13.045  -0.557   3.711  0.00  0.00    +0.015 C 
BRANCH  10  11
ATOM     11  C   UNL     1      13.972  -0.531   2.608  0.00  0.00    -0.002 C 
ATOM     12  C   UNL     1      14.980  -1.414   2.499  0.00  0.00    -0.012 C 
BRANCH  12  13
ATOM     13  C   UNL     1      15.972  -1.413   1.382  0.00  0.00    +0.108 C 
BRANCH  13  14
ATOM     14  N   UNL     1      15.983  -2.719   0.727  0.00  0.00    -0.310 NA
ATOM     15  H   UNL     1      15.033  -2.924   0.413  0.00  0.00    +0.122 HD
BRANCH  14  16
ATOM     16  C   UNL     1      16.885  -2.761  -0.433  0.00  0.00    +0.048 C 
ATOM     17  C   UNL     1      18.349  -2.540  -0.044  0.00  0.00    +0.023 C 
ATOM     18  C   UNL     1      16.742  -4.124  -1.116  0.00  0.00    +0.023 C 
ENDBRANCH  14  16
ENDBRANCH  13  14
ENDBRANCH  12  13
ENDBRANCH  10  11
ENDBRANCH   8   9
ENDBRANCH   2   4
ENDBRANCH   1   2
BRANCH   1  19
ATOM     19  C   UNL     1       7.418   1.880   3.451  0.00  0.00    +0.054 C 
BRANCH  19  20
ATOM     20  C   UNL     1       6.555   2.785   4.336  0.00  0.00    -0.045 C 
ATOM     21  C   UNL     1       6.685   4.117   4.427  0.00  0.00    +0.013 C 
BRANCH  20  26
ATOM     22  C   UNL     1       3.549   0.702   5.439  0.00  0.00    -0.018 A 
ATOM     23  C   UNL     1       3.964   0.353   6.728  0.00  0.00    +0.008 A 
ATOM     24  C   UNL     1       5.098   0.933   7.278  0.00  0.00    +0.001 A 
ATOM     25  C   UNL     1       5.864   1.799   6.504  0.00  0.00    +0.009 A 
ATOM     26  C   UNL     1       5.533   2.096   5.169  0.00  0.00    -0.015 A 
ATOM     27  C   UNL     1       4.293   1.636   4.671  0.00  0.00    -0.011 A 
BRANCH  22  29
ATOM     28  C   UNL     1       2.533  -1.163   4.239  0.00  0.00    +0.009 C 
ATOM     29  C   UNL     1       2.378  -0.012   4.903  0.00  0.00    +0.001 C 
ENDBRANCH  22  29
BRANCH  27  30
ATOM     30  C   UNL     1       3.702   2.207   3.443  0.00  0.00    +0.009 C 
ATOM     31  C   UNL     1       2.916   3.297   3.508  0.00  0.00    +0.001 C 
BRANCH  31  32
ATOM     32  C   UNL     1       2.215   3.860   2.370  0.00  0.00    +0.000 C 
ATOM     33  C   UNL     1       1.444   4.956   2.445  0.00  0.00    -0.001 C 
BRANCH  33  34
ATOM     34  C   UNL     1       0.704   5.485   1.320  0.00  0.00    -0.008 C 
ATOM     35  C   UNL     1      -0.056   6.587   1.393  0.00  0.00    +0.008 C 
ENDBRANCH  33  34
ENDBRANCH  31  32
ENDBRANCH  27  30
ENDBRANCH  20  26
ENDBRANCH  19  20
ENDBRANCH   1  19
TORSDOF 14
