REMARK  Name = 
REMARK  1 active torsions:
REMARK  status: ('A' for Active; 'I' for Inactive)
REMARK    1  A    between atoms: C_7  and  C_8
REMARK                            x       y       z     vdW  Elec       q    Type
REMARK                         _______ _______ _______ _____ _____    ______ ____
ROOT
ATOM      1  C   UNL     1      -3.558  -0.420  -1.047  0.00  0.00    +0.025 C 
ATOM      2  C   UNL     1      -4.498   0.383  -0.181  0.00  0.00    +0.027 C 
ATOM      3  C   UNL     1      -3.810   1.119   0.979  0.00  0.00    +0.101 C 
ATOM      4  N   UNL     1      -2.511   1.652   0.581  0.00  0.00    -0.350 N 
ATOM      5  C   UNL     1      -1.728   0.972  -0.332  0.00  0.00    +0.067 C 
ATOM      6  C   UNL     1      -2.085  -0.155  -0.967  0.00  0.00    -0.049 C 
ATOM      7  C   UNL     1      -2.656  -1.420  -0.469  0.00  0.00    +0.021 C 
ATOM      8  C   UNL     1      -2.393  -2.680  -1.224  0.00  0.00    +0.013 C 
ATOM      9  H   UNL     1      -2.489   2.660   0.440  0.00  0.00    +0.146 HD
ENDROOT
TORSDOF 0
