REMARK  Name = 
REMARK  5 active torsions:
REMARK  status: ('A' for Active; 'I' for Inactive)
REMARK    1  A    between atoms: C_13  and  C_14
REMARK    2  A    between atoms: C_15  and  C_16
REMARK    3  A    between atoms: C_16  and  C_17
REMARK    4  A    between atoms: C_17  and  C_19
REMARK    5  A    between atoms: C_20  and  N_21
REMARK                            x       y       z     vdW  Elec       q    Type
REMARK                         _______ _______ _______ _____ _____    ______ ____
ROOT
ATOM      1  C   UNL     1       0.101   0.948   0.379  0.00  0.00    +0.049 C 
ATOM      2  C   UNL     1      -1.027   0.032  -0.172  0.00  0.00    +0.017 C 
ATOM      3  C   UNL     1      -0.627  -1.400   0.170  0.00  0.00    +0.028 C 
ATOM      4  C   UNL     1       0.857  -1.311   0.182  0.00  0.00    -0.023 C 
ATOM      5  C   UNL     1       1.291  -0.043   0.290  0.00  0.00    -0.044 C 
ATOM      6  C   UNL     1       2.680   0.237  -0.037  0.00  0.00    +0.007 C 
ATOM      7  C   UNL     1       3.780   0.285   0.748  0.00  0.00    +0.051 C 
ATOM      8  C   UNL     1       3.918   0.286   2.240  0.00  0.00    +0.179 C 
ATOM      9  O   UNL     1       4.953  -0.095   2.778  0.00  0.00    -0.288 OA
ATOM     10  C   UNL     1       2.776   0.766   3.043  0.00  0.00    +0.051 C 
ATOM     11  C   UNL     1       2.035   1.751   2.524  0.00  0.00    +0.004 C 
ATOM     12  C   UNL     1       0.627   1.849   2.758  0.00  0.00    +0.004 C 
ATOM     13  C   UNL     1      -0.255   1.542   1.779  0.00  0.00    -0.040 C 
ENDROOT
BRANCH  13  14
ATOM     14  C   UNL     1      -1.648   1.953   2.014  0.00  0.00    +0.000 C 
ATOM     15  C   UNL     1      -2.403   1.508   3.034  0.00  0.00    -0.022 C 
BRANCH  15  16
ATOM     16  C   UNL     1      -3.806   1.961   3.363  0.00  0.00    +0.061 C 
BRANCH  16  17
ATOM     17  C   UNL     1      -4.812   0.825   3.292  0.00  0.00    -0.049 C 
ATOM     18  C   UNL     1      -5.388   0.326   4.400  0.00  0.00    +0.012 C 
BRANCH  17  19
ATOM     19  C   UNL     1      -5.163   0.250   2.001  0.00  0.00    +0.023 C 
ATOM     20  C   UNL     1      -5.101   0.881   0.818  0.00  0.00    +0.110 C 
BRANCH  20  21
ATOM     21  N   UNL     1      -5.448   0.270  -0.355  0.00  0.00    -0.271 NA
ATOM     22  C   UNL     1      -5.928   1.050  -1.258  0.00  0.00    +0.140 C 
ENDBRANCH  20  21
ENDBRANCH  17  19
ENDBRANCH  16  17
ENDBRANCH  15  16
ENDBRANCH  13  14
TORSDOF 5
