REMARK  Name = 
REMARK  10 active torsions:
REMARK  status: ('A' for Active; 'I' for Inactive)
REMARK    1  A    between atoms: C_1  and  N_2
REMARK    2  A    between atoms: N_2  and  C_3
REMARK    3  A    between atoms: C_3  and  C_4
REMARK    4  A    between atoms: C_4  and  C_5
REMARK    5  A    between atoms: C_5  and  C_6
REMARK    6  A    between atoms: C_5  and  C_9
REMARK    7  A    between atoms: C_6  and  C_7
REMARK    8  A    between atoms: C_7  and  C_8
REMARK    9  A    between atoms: C_10  and  C_11
REMARK   10  A    between atoms: C_10  and  C_16
REMARK                            x       y       z     vdW  Elec       q    Type
REMARK                         _______ _______ _______ _____ _____    ______ ____
ROOT
ATOM      1  C   UNL     1       5.007   0.129   2.599  0.00  0.00    +0.014 C 
ENDROOT
BRANCH   1   2
ATOM      2  C   UNL     1       6.513   0.259   2.779  0.00  0.00    -0.002 C 
ATOM      3  C   UNL     1       7.196   0.831   3.802  0.00  0.00    +0.083 C 
BRANCH   3   4
ATOM      4  C   UNL     1       6.506   1.495   4.991  0.00  0.00    +0.262 C 
ATOM      5  O   UNL     1       5.279   1.574   5.058  0.00  0.00    -0.269 OA
ATOM      6  N   UNL     1       7.392   1.960   5.936  0.00  0.00    -0.247 N 
ATOM      7  C   UNL     1       7.875   2.541   7.054  0.00  0.00    +0.099 C 
ATOM      8  C   UNL     1       6.624   2.664   6.908  0.00  0.00    +0.099 C 
ENDBRANCH   3   4
BRANCH   3   9
ATOM      9  C   UNL     1       8.630   0.774   3.762  0.00  0.00    -0.065 C 
ATOM     10  C   UNL     1       9.832   0.723   3.753  0.00  0.00    +0.009 C 
ENDBRANCH   3   9
ENDBRANCH   1   2
BRANCH   1  11
ATOM     11  C   UNL     1       4.564   0.164   1.106  0.00  0.00    +0.023 C 
BRANCH  11  12
ATOM     12  C   UNL     1       3.027   0.155   0.991  0.00  0.00    +0.081 C 
BRANCH  12  14
ATOM     13  C   UNL     1       1.070   0.248  -0.377  0.00  0.00    +0.101 C 
ATOM     14  N   UNL     1       2.535   0.226  -0.387  0.00  0.00    -0.319 NA
ATOM     15  H   UNL     1       2.876   1.076  -0.835  0.00  0.00    +0.122 HD
ENDBRANCH  12  14
ENDBRANCH  11  12
ENDBRANCH   1  11
BRANCH   1  16
ATOM     16  C   UNL     1       4.476  -1.109   3.368  0.00  0.00    +0.007 C 
BRANCH  16  17
ATOM     17  C   UNL     1       4.946  -2.460   2.817  0.00  0.00    -0.003 C 
ATOM     18  C   UNL     1       4.349  -3.622   3.598  0.00  0.00    +0.004 C 
ENDBRANCH  16  17
ENDBRANCH   1  16
TORSDOF 8
