REMARK  Name = 
REMARK  3 active torsions:
REMARK  status: ('A' for Active; 'I' for Inactive)
REMARK    1  A    between atoms: C_2  and  C_3
REMARK    2  A    between atoms: C_3  and  S_4
REMARK    3  A    between atoms: C_3  and  N_5
REMARK                            x       y       z     vdW  Elec       q    Type
REMARK                         _______ _______ _______ _____ _____    ______ ____
ROOT
ATOM      1  C   UNL     1       3.064  -0.865  -1.020  0.00  0.00    +0.150 C 
ENDROOT
BRANCH   1   2
ATOM      2  N   UNL     1       4.459  -0.592  -0.827  0.00  0.00    -0.303 N 
ATOM      3  C   UNL     1       5.228  -1.335   0.025  0.00  0.00    +0.326 C 
ATOM      4  O   UNL     1       4.852  -2.299   0.675  0.00  0.00    -0.279 OA
ATOM      5  H   UNL     1       4.866   0.200  -1.299  0.00  0.00    +0.150 HD
ENDBRANCH   1   2
BRANCH   1   7
ATOM      6  C   UNL     1       1.462  -0.469   0.876  0.00  0.00    +0.006 C 
ATOM      7  C   UNL     1       2.288   0.001  -0.070  0.00  0.00    -0.002 C 
ENDBRANCH   1   7
BRANCH   1   8
ATOM      8  S   UNL     1       2.630  -0.438  -2.723  0.00  0.00    -0.152 S 
ATOM      9  H   UNL     1       2.918   0.866  -2.635  0.00  0.00    +0.104 HD
ENDBRANCH   1   8
TORSDOF 3
