REMARK  Name = 
REMARK  1 active torsions:
REMARK  status: ('A' for Active; 'I' for Inactive)
REMARK    1  A    between atoms: C_7  and  C_8
REMARK                            x       y       z     vdW  Elec       q    Type
REMARK                         _______ _______ _______ _____ _____    ______ ____
ROOT
ATOM      1  C   UNL     1       1.114   1.310   0.079  0.00  0.00    +0.083 C 
ATOM      2  C   UNL     1       1.663  -0.139  -0.145  0.00  0.00    +0.237 C 
ATOM      3  O   UNL     1       0.515  -0.950  -0.030  0.00  0.00    -0.461 OA
ATOM      4  C   UNL     1      -0.664  -0.237  -0.065  0.00  0.00    +0.335 C 
ATOM      5  O   UNL     1      -1.724  -0.829   0.056  0.00  0.00    -0.245 OA
ATOM      6  C   UNL     1      -0.506   1.357  -0.193  0.00  0.00    +0.041 C 
ATOM      7  C   UNL     1      -1.721   2.150  -0.432  0.00  0.00    +0.027 C 
ENDROOT
BRANCH   7   8
ATOM      8  C   UNL     1      -2.478   3.727  -0.588  0.00  0.00    +0.027 C 
ATOM      9  C   UNL     1      -3.739   4.408  -0.832  0.00  0.00    +0.033 C 
ATOM     10  C   UNL     1      -3.309   6.062  -0.597  0.00  0.00    +0.019 C 
ATOM     11  C   UNL     1      -3.578   7.392  -0.491  0.00  0.00    +0.026 C 
ATOM     12  C   UNL     1      -1.955   5.863  -0.350  0.00  0.00    -0.062 C 
ATOM     13  C   UNL     1      -1.608   4.738  -0.274  0.00  0.00    -0.061 C 
ENDBRANCH   7   8
TORSDOF 1
