REMARK  Name = 
REMARK  0 active torsions:
REMARK  status: ('A' for Active; 'I' for Inactive)
REMARK                            x       y       z     vdW  Elec       q    Type
REMARK                         _______ _______ _______ _____ _____    ______ ____
ROOT
ATOM      1  C   UNL     1       0.705  -1.336   1.671  0.00  0.00    +0.204 C 
ATOM      2  C   UNL     1       1.360   0.115   1.802  0.00  0.00    +0.053 C 
ATOM      3  C   UNL     1       1.175   0.885   0.452  0.00  0.00    -0.003 C 
ATOM      4  C   UNL     1       1.906   0.175  -0.726  0.00  0.00    +0.008 C 
ATOM      5  C   UNL     1       1.423  -1.319  -0.927  0.00  0.00    +0.038 C 
ATOM      6  C   UNL     1       0.417  -1.668   0.199  0.00  0.00    +0.014 C 
ATOM      7  C   UNL     1      -0.894  -1.328   0.479  0.00  0.00    +0.153 C 
ATOM      8  O   UNL     1      -0.745  -1.369   1.764  0.00  0.00    -0.482 OA
ATOM      9  C   UNL     1      -1.973  -0.494  -0.324  0.00  0.00    +0.117 C 
ATOM     10  N   UNL     1      -1.536  -0.001  -1.501  0.00  0.00    -0.311 N 
ATOM     11  C   UNL     1      -1.015   1.255  -1.575  0.00  0.00    +0.077 C 
ATOM     12  C   UNL     1      -0.978   2.007  -0.382  0.00  0.00    -0.026 C 
ATOM     13  C   UNL     1      -1.989   1.726   0.554  0.00  0.00    +0.058 C 
ATOM     14  C   UNL     1      -2.551   0.448   0.555  0.00  0.00    -0.093 C 
ATOM     15  C   UNL     1       0.486   2.285   0.229  0.00  0.00    +0.040 C 
ATOM     16  H   UNL     1      -1.437  -0.622  -2.255  0.00  0.00    +0.152 HD
ENDROOT
TORSDOF 0
