REMARK  Name = 
REMARK  3 active torsions:
REMARK  status: ('A' for Active; 'I' for Inactive)
REMARK    1  A    between atoms: C_1  and  N_2
REMARK    2  A    between atoms: N_2  and  C_3
REMARK    3  A    between atoms: C_4  and  C_5
REMARK                            x       y       z     vdW  Elec       q    Type
REMARK                         _______ _______ _______ _____ _____    ______ ____
ROOT
ATOM      1  C   UNL     1       3.186  -1.245  -0.337  0.00  0.00    +0.070 C 
ATOM      2  C   UNL     1       4.522  -1.272  -0.345  0.00  0.00    +0.057 C 
ENDROOT
BRANCH   1   4
ATOM      3  C   UNL     1       0.967  -0.116  -0.027  0.00  0.00    +0.125 C 
ATOM      4  N   UNL     1       2.410  -0.156  -0.038  0.00  0.00    -0.353 N 
ATOM      5  H   UNL     1       2.893   0.707   0.200  0.00  0.00    +0.145 HD
ENDBRANCH   1   4
BRANCH   2   6
ATOM      6  C   UNL     1       5.248  -2.510  -0.685  0.00  0.00    +0.252 C 
ATOM      7  O   UNL     1       6.472  -2.550  -0.696  0.00  0.00    -0.296 OA
ENDBRANCH   2   6
TORSDOF 2
