REMARK  Name = 
REMARK  2 active torsions:
REMARK  status: ('A' for Active; 'I' for Inactive)
REMARK    1  A    between atoms: C_1  and  C_2
REMARK    2  A    between atoms: C_3  and  C_4
REMARK                            x       y       z     vdW  Elec       q    Type
REMARK                         _______ _______ _______ _____ _____    ______ ____
ROOT
ATOM      1  C   UNL     1       1.049  -0.098   0.023  0.00  0.00    +0.035 C 
ATOM      2  C   UNL     1       2.543  -0.141   0.004  0.00  0.00    -0.027 C 
ATOM      3  C   UNL     1       3.223  -1.199  -0.457  0.00  0.00    +0.038 C 
ENDROOT
BRANCH   3   4
ATOM      4  C   UNL     1       4.699  -1.211  -0.462  0.00  0.00    +0.250 C 
ATOM      5  O   UNL     1       5.326  -2.175  -0.885  0.00  0.00    -0.296 OA
ENDBRANCH   3   4
TORSDOF 1
