REMARK  Name = 
REMARK  7 active torsions:
REMARK  status: ('A' for Active; 'I' for Inactive)
REMARK    1  A    between atoms: C_4  and  C_11
REMARK    2  A    between atoms: C_6  and  C_7
REMARK    3  A    between atoms: C_7  and  C_8
REMARK    4  A    between atoms: C_9  and  C_10
REMARK    5  A    between atoms: C_11  and  C_12
REMARK    6  A    between atoms: C_13  and  C_14
REMARK    7  A    between atoms: C_15  and  C_16
REMARK                            x       y       z     vdW  Elec       q    Type
REMARK                         _______ _______ _______ _____ _____    ______ ____
ROOT
ATOM      1  C   UNL     1       0.180  -1.455   0.010  0.00  0.00    +0.259 C 
ATOM      2  O   UNL     1      -1.175  -0.969  -0.000  0.00  0.00    -0.495 OA
ATOM      3  C   UNL     1      -1.370   0.384  -0.009  0.00  0.00    +0.191 C 
ATOM      4  C   UNL     1      -0.410   1.321  -0.028  0.00  0.00    -0.009 C 
ATOM      5  C   UNL     1       0.971   0.900  -0.021  0.00  0.00    +0.010 C 
ATOM      6  C   UNL     1       1.269  -0.409  -0.014  0.00  0.00    -0.029 C 
ENDROOT
BRANCH   6   7
ATOM      7  C   UNL     1       2.688  -0.915  -0.010  0.00  0.00    +0.061 C 
BRANCH   7   8
ATOM      8  C   UNL     1       3.290  -1.159  -1.371  0.00  0.00    -0.027 C 
ATOM      9  C   UNL     1       2.720  -0.962  -2.571  0.00  0.00    -0.034 C 
ATOM     10  C   UNL     1       3.407  -1.219  -3.872  0.00  0.00    +0.035 C 
ENDBRANCH   7   8
ENDBRANCH   6   7
BRANCH   4  11
ATOM     11  C   UNL     1      -0.713   2.798   0.014  0.00  0.00    +0.065 C 
BRANCH  11  12
ATOM     12  C   UNL     1      -0.842   3.417  -1.355  0.00  0.00    -0.022 C 
ATOM     13  C   UNL     1      -1.949   4.057  -1.764  0.00  0.00    -0.004 C 
BRANCH  13  14
ATOM     14  C   UNL     1      -2.094   4.691  -3.058  0.00  0.00    +0.000 C 
ATOM     15  C   UNL     1      -3.228   5.316  -3.415  0.00  0.00    +0.010 C 
BRANCH  15  16
ATOM     16  C   UNL     1      -3.383   5.938  -4.685  0.00  0.00    +0.002 C 
ATOM     17  C   UNL     1      -4.656   6.442  -4.664  0.00  0.00    +0.037 C 
ATOM     18  C   UNL     1      -3.958   6.656  -5.798  0.00  0.00    +0.063 C 
ATOM     19  N   UNL     1      -3.874   7.121  -6.942  0.00  0.00    -0.299 NA
ATOM     20  H   UNL     1      -4.746   7.589  -7.212  0.00  0.00    +0.187 HD
ENDBRANCH  15  16
ENDBRANCH  13  14
ENDBRANCH  11  12
ENDBRANCH   4  11
TORSDOF 6
