REMARK  Name = 
REMARK  5 active torsions:
REMARK  status: ('A' for Active; 'I' for Inactive)
REMARK    1  A    between atoms: C_10  and  N_11
REMARK    2  A    between atoms: N_11  and  C_12
REMARK    3  A    between atoms: C_12  and  N_13
REMARK    4  A    between atoms: C_14  and  C_15
REMARK    5  A    between atoms: C_15  and  C_16
REMARK                            x       y       z     vdW  Elec       q    Type
REMARK                         _______ _______ _______ _____ _____    ______ ____
ROOT
ATOM      1  C   UNL     1      -3.504  -1.997  -0.291  0.00  0.00    +0.138 C 
ATOM      2  C   UNL     1      -3.478  -0.454  -0.297  0.00  0.00    +0.060 C 
ATOM      3  C   UNL     1      -2.046  -0.163  -0.476  0.00  0.00    -0.020 C 
ATOM      4  C   UNL     1      -1.277  -1.226  -0.745  0.00  0.00    -0.036 C 
ATOM      5  C   UNL     1      -2.114  -2.474   0.211  0.00  0.00    +0.062 C 
ATOM      6  C   UNL     1      -2.209  -3.999  -0.029  0.00  0.00    +0.048 C 
ATOM      7  C   UNL     1      -3.630  -4.260   0.272  0.00  0.00    +0.161 C 
ATOM      8  O   UNL     1      -4.324  -3.189  -0.393  0.00  0.00    -0.375 OA
ATOM      9  C   UNL     1      -0.518  -2.401  -1.016  0.00  0.00    +0.023 C 
ATOM     10  C   UNL     1      -0.515  -2.425   0.341  0.00  0.00    +0.019 C 
ENDROOT
BRANCH  10  11
ATOM     11  N   UNL     1       0.171  -2.744   1.400  0.00  0.00    -0.328 N 
ATOM     12  H   UNL     1      -0.191  -2.293   2.237  0.00  0.00    +0.148 HD
BRANCH  11  13
ATOM     13  C   UNL     1       1.615  -2.712   1.422  0.00  0.00    +0.245 C 
BRANCH  13  14
ATOM     14  N   UNL     1       2.124  -3.717   2.356  0.00  0.00    -0.277 NA
ATOM     15  C   UNL     1       1.811  -4.943   2.108  0.00  0.00    +0.085 C 
BRANCH  15  16
ATOM     16  C   UNL     1       2.283  -6.058   3.022  0.00  0.00    +0.099 C 
BRANCH  16  17
ATOM     17  C   UNL     1       3.103  -7.073   2.433  0.00  0.00    +0.040 C 
ATOM     18  N   UNL     1       3.153  -7.977   1.537  0.00  0.00    -0.284 NA
ATOM     19  C   UNL     1       4.328  -7.757   2.419  0.00  0.00    +0.192 C 
ENDBRANCH  16  17
ENDBRANCH  15  16
ENDBRANCH  13  14
ENDBRANCH  11  13
ENDBRANCH  10  11
TORSDOF 5
