REMARK  Name = 
REMARK  0 active torsions:
REMARK  status: ('A' for Active; 'I' for Inactive)
REMARK                            x       y       z     vdW  Elec       q    Type
REMARK                         _______ _______ _______ _____ _____    ______ ____
ROOT
ATOM      1  C   UNL     1      -0.855  -1.622  -0.501  0.00  0.00    +0.073 C 
ATOM      2  C   UNL     1       0.313  -1.705   0.494  0.00  0.00    +0.008 C 
ATOM      3  C   UNL     1       1.678  -1.221  -0.023  0.00  0.00    +0.004 C 
ATOM      4  C   UNL     1       2.032   0.237   0.280  0.00  0.00    +0.027 C 
ATOM      5  C   UNL     1       1.319   1.243  -0.572  0.00  0.00    -0.028 C 
ATOM      6  C   UNL     1       0.101   1.749  -0.325  0.00  0.00    +0.009 C 
ATOM      7  C   UNL     1      -0.793   1.354   0.818  0.00  0.00    +0.256 C 
ATOM      8  O   UNL     1      -1.852   0.447   0.469  0.00  0.00    -0.493 OA
ATOM      9  C   UNL     1      -1.646  -0.344  -0.642  0.00  0.00    +0.091 C 
ATOM     10  C   UNL     1      -2.300  -0.042  -1.774  0.00  0.00    +0.053 C 
ENDROOT
TORSDOF 0
