REMARK  Name = 
REMARK  20 active torsions:
REMARK  status: ('A' for Active; 'I' for Inactive)
REMARK    1  A    between atoms: C_1  and  N_2
REMARK    2  A    between atoms: N_2  and  C_3
REMARK    3  A    between atoms: C_3  and  C_4
REMARK    4  A    between atoms: C_4  and  C_5
REMARK    5  A    between atoms: C_5  and  C_6
REMARK    6  A    between atoms: C_6  and  C_7
REMARK    7  A    between atoms: C_7  and  C_8
REMARK    8  A    between atoms: C_7  and  C_19
REMARK    9  A    between atoms: C_8  and  C_10
REMARK   10  A    between atoms: C_11  and  C_12
REMARK   11  A    between atoms: C_14  and  C_15
REMARK   12  A    between atoms: C_15  and  C_16
REMARK   13  A    between atoms: N_17  and  C_18
REMARK   14  A    between atoms: C_19  and  C_22
REMARK   15  A    between atoms: C_20  and  C_21
REMARK   16  A    between atoms: C_22  and  C_23
REMARK   17  A    between atoms: C_23  and  C_24
REMARK   18  A    between atoms: C_23  and  C_25
REMARK   19  A    between atoms: C_25  and  C_26
REMARK   20  A    between atoms: C_26  and  C_27
REMARK                            x       y       z     vdW  Elec       q    Type
REMARK                         _______ _______ _______ _____ _____    ______ ____
ROOT
ATOM      1  C   UNL     1       6.964   1.603  -4.060  0.00  0.00    +0.044 C 
ENDROOT
BRANCH   1   2
ATOM      2  C   UNL     1       8.499   1.406  -3.953  0.00  0.00    -0.066 C 
ATOM      3  C   UNL     1       9.324   1.864  -2.983  0.00  0.00    -0.030 C 
ATOM      4  C   UNL     1       9.052   2.696  -1.769  0.00  0.00    +0.035 C 
BRANCH   2   5
ATOM      5  C   UNL     1       9.110   0.440  -4.973  0.00  0.00    +0.034 C 
BRANCH   5   6
ATOM      6  C   UNL     1       8.981   0.789  -6.472  0.00  0.00    -0.010 C 
ATOM      7  C   UNL     1       9.648   2.131  -6.796  0.00  0.00    +0.008 C 
BRANCH   6   8
ATOM      8  C   UNL     1       9.607  -0.316  -7.362  0.00  0.00    +0.006 C 
BRANCH   8   9
ATOM      9  C   UNL     1       8.937  -1.688  -7.208  0.00  0.00    +0.034 C 
BRANCH   9  10
ATOM     10  C   UNL     1       9.557  -2.740  -8.114  0.00  0.00    +0.213 C 
ATOM     11  F   UNL     1      10.869  -2.891  -7.792  0.00  0.00    -0.249 F 
ENDBRANCH   9  10
ENDBRANCH   8   9
ENDBRANCH   6   8
ENDBRANCH   5   6
ENDBRANCH   2   5
ENDBRANCH   1   2
BRANCH   1  12
ATOM     12  C   UNL     1       6.509   3.008  -4.515  0.00  0.00    -0.047 C 
ATOM     13  C   UNL     1       5.489   3.170  -5.377  0.00  0.00    +0.013 C 
BRANCH  12  14
ATOM     14  C   UNL     1       7.259   4.183  -4.087  0.00  0.00    +0.004 C 
ATOM     15  C   UNL     1       6.726   5.354  -3.701  0.00  0.00    +0.008 C 
BRANCH  15  16
ATOM     16  C   UNL     1       7.541   6.485  -3.320  0.00  0.00    +0.051 C 
ATOM     17  C   UNL     1       7.004   7.624  -3.021  0.00  0.00    -0.124 C 
ATOM     18  C   UNL     1       6.420   8.755  -2.732  0.00  0.00    +0.030 C 
BRANCH  18  19
ATOM     19  C   UNL     1       6.481   9.979  -3.593  0.00  0.00    +0.082 C 
BRANCH  19  20
ATOM     20  C   UNL     1       6.274  11.200  -2.732  0.00  0.00    +0.082 C 
ATOM     21  N   UNL     1       5.102  11.716  -2.586  0.00  0.00    -0.299 NA
ATOM     22  C   UNL     1       5.088  12.891  -1.718  0.00  0.00    +0.169 C 
ENDBRANCH  19  20
ENDBRANCH  18  19
ENDBRANCH  15  16
ENDBRANCH  12  14
ENDBRANCH   1  12
BRANCH   1  23
ATOM     23  C   UNL     1       6.241   1.095  -2.784  0.00  0.00    +0.012 C 
BRANCH  23  24
ATOM     24  C   UNL     1       4.718   0.899  -2.884  0.00  0.00    +0.002 C 
BRANCH  24  25
ATOM     25  C   UNL     1       4.242  -0.113  -3.932  0.00  0.00    +0.015 C 
BRANCH  25  26
ATOM     26  C   UNL     1       4.862  -1.491  -3.709  0.00  0.00    +0.080 C 
BRANCH  26  28
ATOM     27  C   UNL     1       5.051  -3.740  -4.473  0.00  0.00    +0.101 C 
ATOM     28  N   UNL     1       4.415  -2.450  -4.718  0.00  0.00    -0.319 NA
ATOM     29  H   UNL     1       3.402  -2.555  -4.666  0.00  0.00    +0.122 HD
ENDBRANCH  26  28
ENDBRANCH  25  26
ENDBRANCH  24  25
ENDBRANCH  23  24
ENDBRANCH   1  23
TORSDOF 16
