REMARK  Name = 
REMARK  17 active torsions:
REMARK  status: ('A' for Active; 'I' for Inactive)
REMARK    1  A    between atoms: C_1  and  C_2
REMARK    2  A    between atoms: N_3  and  C_14
REMARK    3  A    between atoms: C_6  and  C_7
REMARK    4  A    between atoms: C_7  and  C_8
REMARK    5  A    between atoms: C_9  and  N_10
REMARK    6  A    between atoms: C_19  and  C_20
REMARK    7  A    between atoms: C_20  and  C_21
REMARK    8  A    between atoms: C_22  and  C_23
REMARK    9  A    between atoms: C_23  and  C_24
REMARK   10  A    between atoms: C_24  and  C_25
REMARK   11  A    between atoms: C_24  and  O_26
REMARK   12  A    between atoms: O_26  and  C_27
REMARK   13  A    between atoms: C_27  and  C_28
REMARK   14  A    between atoms: C_28  and  C_29
REMARK   15  A    between atoms: C_29  and  C_30
REMARK   16  A    between atoms: C_30  and  C_31
REMARK   17  A    between atoms: C_31  and  C_32
REMARK                            x       y       z     vdW  Elec       q    Type
REMARK                         _______ _______ _______ _____ _____    ______ ____
ROOT
ATOM      1  C   UNL     1       2.615  -2.605   0.415  0.00  0.00    +0.079 C 
ATOM      2  C   UNL     1       2.367  -3.219  -0.754  0.00  0.00    -0.004 C 
ATOM      3  C   UNL     1       2.588  -2.596  -2.048  0.00  0.00    +0.010 C 
ATOM      4  C   UNL     1       2.245  -3.486  -2.981  0.00  0.00    +0.001 C 
ATOM      5  C   UNL     1       1.804  -4.707  -2.337  0.00  0.00    +0.009 C 
ATOM      6  C   UNL     1       1.888  -4.604  -0.992  0.00  0.00    -0.014 C 
ENDROOT
BRANCH   1   9
ATOM      7  C   UNL     1       0.786  -0.189   0.341  0.00  0.00    +0.028 C 
ATOM      8  C   UNL     1       2.300  -0.079   0.222  0.00  0.00    +0.073 C 
ATOM      9  N   UNL     1       2.996  -1.296   0.679  0.00  0.00    -0.332 N 
ATOM     10  C   UNL     1       4.236  -0.953   1.376  0.00  0.00    +0.105 C 
ATOM     11  C   UNL     1       4.391   0.551   1.160  0.00  0.00    +0.024 C 
ATOM     12  C   UNL     1       2.947   1.054   1.061  0.00  0.00    +0.014 C 
BRANCH  12  13
ATOM     13  C   UNL     1       2.302   1.304   2.440  0.00  0.00    +0.033 C 
BRANCH  13  14
ATOM     14  C   UNL     1       3.031   2.364   3.231  0.00  0.00    -0.011 C 
ATOM     15  C   UNL     1       2.699   3.662   3.201  0.00  0.00    +0.072 C 
BRANCH  15  16
ATOM     16  N   UNL     1       3.394   4.607   3.907  0.00  0.00    -0.277 N 
ATOM     17  C   UNL     1       3.092   5.945   3.887  0.00  0.00    +0.301 C 
ATOM     18  O   UNL     1       2.179   6.472   3.267  0.00  0.00    -0.253 OA
ATOM     19  N   UNL     1       3.923   6.686   4.670  0.00  0.00    -0.313 N 
ATOM     20  H   UNL     1       4.150   4.310   4.506  0.00  0.00    +0.156 HD
ATOM     21  H   UNL     1       4.886   6.403   4.762  0.00  0.00    +0.146 HD
ATOM     22  H   UNL     1       3.773   7.683   4.578  0.00  0.00    +0.146 HD
ENDBRANCH  15  16
ENDBRANCH  13  14
ENDBRANCH  12  13
ENDBRANCH   1   9
BRANCH   6  23
ATOM     23  C   UNL     1       1.482  -5.671  -0.079  0.00  0.00    -0.047 C 
ATOM     24  C   UNL     1       0.369  -6.606  -0.502  0.00  0.00    +0.044 C 
ATOM     25  C   UNL     1       2.116  -5.865   1.093  0.00  0.00    -0.021 C 
BRANCH  25  26
ATOM     26  C   UNL     1       1.773  -6.902   2.122  0.00  0.00    +0.058 C 
BRANCH  26  27
ATOM     27  C   UNL     1       1.465  -6.304   3.509  0.00  0.00    +0.119 C 
ATOM     28  C   UNL     1       0.248  -5.376   3.465  0.00  0.00    +0.038 C 
BRANCH  27  29
ATOM     29  O   UNL     1       1.158  -7.335   4.459  0.00  0.00    -0.377 OA
BRANCH  29  30
ATOM     30  C   UNL     1       2.247  -8.211   4.741  0.00  0.00    +0.160 C 
BRANCH  30  31
ATOM     31  C   UNL     1       1.800  -9.280   5.728  0.00  0.00    +0.028 C 
BRANCH  31  32
ATOM     32  C   UNL     1       0.619 -10.087   5.180  0.00  0.00    +0.002 C 
BRANCH  32  33
ATOM     33  C   UNL     1       0.212 -11.201   6.140  0.00  0.00    -0.000 C 
BRANCH  33  34
ATOM     34  C   UNL     1      -0.986 -11.977   5.598  0.00  0.00    -0.003 C 
ATOM     35  C   UNL     1      -1.407 -13.080   6.554  0.00  0.00    +0.004 C 
ENDBRANCH  33  34
ENDBRANCH  32  33
ENDBRANCH  31  32
ENDBRANCH  30  31
ENDBRANCH  29  30
ENDBRANCH  27  29
ENDBRANCH  26  27
ENDBRANCH  25  26
ENDBRANCH   6  23
TORSDOF 13
