REMARK  Name = 
REMARK  13 active torsions:
REMARK  status: ('A' for Active; 'I' for Inactive)
REMARK    1  A    between atoms: C_2  and  C_3
REMARK    2  A    between atoms: C_4  and  C_5
REMARK    3  A    between atoms: C_5  and  C_6
REMARK    4  A    between atoms: C_6  and  C_7
REMARK    5  A    between atoms: C_7  and  N_8
REMARK    6  A    between atoms: N_8  and  C_9
REMARK    7  A    between atoms: C_9  and  C_10
REMARK    8  A    between atoms: C_9  and  C_17
REMARK    9  A    between atoms: C_11  and  C_15
REMARK   10  A    between atoms: C_17  and  N_18
REMARK   11  A    between atoms: N_18  and  C_19
REMARK   12  A    between atoms: C_19  and  C_21
REMARK   13  A    between atoms: C_21  and  C_22
REMARK                            x       y       z     vdW  Elec       q    Type
REMARK                         _______ _______ _______ _____ _____    ______ ____
ROOT
ATOM      1  C   UNL     1       9.730  -0.980  -4.414  0.00  0.00    +0.118 C 
ENDROOT
BRANCH   1   2
ATOM      2  C   UNL     1       9.396  -0.071  -5.568  0.00  0.00    +0.042 A 
ATOM      3  C   UNL     1       9.379  -0.226  -6.959  0.00  0.00    -0.003 A 
ATOM      4  C   UNL     1       9.002   1.030  -7.498  0.00  0.00    +0.027 A 
ATOM      5  C   UNL     1       8.770   1.903  -6.467  0.00  0.00    +0.083 A 
ATOM      6  N   UNL     1       9.000   1.227  -5.306  0.00  0.00    -0.363 N 
ATOM      7  H   UNL     1       8.848   1.591  -4.367  0.00  0.00    +0.165 HD
BRANCH   3   8
ATOM      8  C   UNL     1       9.695  -1.394  -7.708  0.00  0.00    +0.002 C 
ATOM      9  C   UNL     1       9.683  -1.534  -9.065  0.00  0.00    +0.009 C 
ENDBRANCH   3   8
ENDBRANCH   1   2
BRANCH   1  10
ATOM     10  N   UNL     1       8.925  -0.624  -3.206  0.00  0.00    -0.307 NA
ATOM     11  H   UNL     1       9.167  -1.297  -2.477  0.00  0.00    +0.123 HD
BRANCH  10  12
ATOM     12  C   UNL     1       7.485  -0.770  -3.473  0.00  0.00    +0.082 C 
BRANCH  12  13
ATOM     13  C   UNL     1       7.141  -2.200  -3.867  0.00  0.00    +0.019 C 
BRANCH  13  14
ATOM     14  C   UNL     1       5.656  -2.330  -4.146  0.00  0.00    +0.028 C 
BRANCH  14  16
ATOM     15  C   UNL     1       4.750  -4.029  -5.721  0.00  0.00    -0.005 C 
ATOM     16  C   UNL     1       5.307  -3.732  -4.540  0.00  0.00    -0.027 C 
BRANCH  15  18
ATOM     17  C   UNL     1       3.847  -5.672  -7.280  0.00  0.00    +0.008 C 
ATOM     18  C   UNL     1       4.405  -5.374  -6.101  0.00  0.00    -0.008 C 
ENDBRANCH  15  18
ENDBRANCH  14  16
ENDBRANCH  13  14
ENDBRANCH  12  13
ENDBRANCH  10  12
ENDBRANCH   1  10
BRANCH   1  19
ATOM     19  C   UNL     1      11.243  -0.940  -4.096  0.00  0.00    +0.126 C 
BRANCH  19  20
ATOM     20  N   UNL     1      11.601  -1.899  -3.037  0.00  0.00    -0.345 N 
ATOM     21  H   UNL     1      11.075  -1.758  -2.184  0.00  0.00    +0.146 HD
BRANCH  20  22
ATOM     22  C   UNL     1      11.989  -3.222  -3.269  0.00  0.00    +0.009 C 
ATOM     23  C   UNL     1      12.606  -3.562  -4.415  0.00  0.00    +0.029 C 
BRANCH  22  24
ATOM     24  C   UNL     1      11.740  -4.256  -2.130  0.00  0.00    +0.056 C 
ATOM     25  C   UNL     1      10.259  -4.402  -1.744  0.00  0.00    +0.025 C 
ATOM     26  C   UNL     1      12.597  -3.911  -0.884  0.00  0.00    +0.023 C 
ATOM     27  C   UNL     1      13.909  -4.689  -1.049  0.00  0.00    +0.031 C 
ATOM     28  C   UNL     1      13.485  -5.856  -1.878  0.00  0.00    +0.008 C 
ATOM     29  C   UNL     1      12.303  -5.625  -2.442  0.00  0.00    +0.108 C 
ATOM     30  F   UNL     1      11.718  -6.497  -3.285  0.00  0.00    -0.210 F 
ENDBRANCH  22  24
ENDBRANCH  20  22
ENDBRANCH  19  20
ENDBRANCH   1  19
TORSDOF 12
