REMARK  Name = 
REMARK  6 active torsions:
REMARK  status: ('A' for Active; 'I' for Inactive)
REMARK    1  A    between atoms: C_1  and  C_2
REMARK    2  A    between atoms: C_3  and  C_4
REMARK    3  A    between atoms: C_5  and  C_7
REMARK    4  A    between atoms: C_8  and  C_9
REMARK    5  A    between atoms: C_19  and  C_20
REMARK    6  A    between atoms: C_23  and  C_24
REMARK                            x       y       z     vdW  Elec       q    Type
REMARK                         _______ _______ _______ _____ _____    ______ ____
ROOT
ATOM      1  C   UNL     1      12.052  -4.943  -1.285  0.00  0.00    +0.020 C 
ATOM      2  C   UNL     1      13.501  -4.970  -2.187  0.00  0.00    +0.027 C 
ATOM      3  C   UNL     1      14.634  -6.060  -2.626  0.00  0.00    +0.102 C 
ATOM      4  N   UNL     1      14.575  -7.032  -3.775  0.00  0.00    -0.344 N 
ATOM      5  C   UNL     1      14.455  -8.436  -3.658  0.00  0.00    +0.020 C 
ATOM      6  C   UNL     1      14.727  -9.320  -4.637  0.00  0.00    +0.033 C 
ATOM      7  C   UNL     1      14.087  -8.923  -2.349  0.00  0.00    +0.022 C 
ATOM      8  C   UNL     1      15.023  -9.096  -1.391  0.00  0.00    +0.002 C 
ATOM      9  C   UNL     1      14.655  -8.703  -0.046  0.00  0.00    +0.001 C 
ATOM     10  C   UNL     1      15.468  -7.944   0.718  0.00  0.00    +0.019 C 
ATOM     11  C   UNL     1      12.480  -4.749   0.270  0.00  0.00    +0.023 C 
ATOM     12  C   UNL     1      11.776  -3.780   1.217  0.00  0.00    +0.013 C 
ATOM     13  C   UNL     1      12.600  -6.070   1.009  0.00  0.00    +0.029 C 
ATOM     14  C   UNL     1      13.729  -6.531   1.476  0.00  0.00    -0.113 C 
ATOM     15  C   UNL     1      14.936  -6.979   1.682  0.00  0.00    +0.056 C 
ATOM     16  H   UNL     1      15.420  -6.896  -4.350  0.00  0.00    +0.146 HD
ENDROOT
BRANCH   1  18
ATOM     17  C   UNL     1      10.178  -2.953  -2.230  0.00  0.00    +0.021 C 
ATOM     18  C   UNL     1      10.679  -4.006  -1.500  0.00  0.00    -0.021 C 
BRANCH  17  20
ATOM     19  C   UNL     1       7.989  -1.377  -2.517  0.00  0.00    +0.052 C 
ATOM     20  C   UNL     1       8.860  -2.288  -2.100  0.00  0.00    +0.053 C 
ATOM     21  N   UNL     1       7.864  -2.167  -1.267  0.00  0.00    -0.312 N 
ATOM     22  H   UNL     1       7.052  -2.766  -1.428  0.00  0.00    +0.152 HD
BRANCH  19  25
ATOM     23  C   UNL     1       4.490   0.557  -2.183  0.00  0.00    +0.035 C 
ATOM     24  C   UNL     1       5.710  -0.310  -1.863  0.00  0.00    -0.028 C 
ATOM     25  C   UNL     1       6.784  -0.543  -2.658  0.00  0.00    +0.020 C 
ENDBRANCH  19  25
ENDBRANCH  17  20
ENDBRANCH   1  18
BRANCH  15  26
ATOM     26  C   UNL     1      15.854  -6.052   2.408  0.00  0.00    +0.267 C 
ATOM     27  O   UNL     1      17.072  -6.050   2.273  0.00  0.00    -0.295 OA
ENDBRANCH  15  26
TORSDOF 4
