REMARK  Name = 
REMARK  0 active torsions:
REMARK  status: ('A' for Active; 'I' for Inactive)
REMARK                            x       y       z     vdW  Elec       q    Type
REMARK                         _______ _______ _______ _____ _____    ______ ____
ROOT
ATOM      1  C   UNL     1      -2.879  -0.776  -0.353  0.00  0.00    +0.004 C 
ATOM      2  C   UNL     1      -3.966  -1.070   0.494  0.00  0.00    +0.004 C 
ATOM      3  C   UNL     1      -3.837  -1.347   1.995  0.00  0.00    -0.036 C 
ATOM      4  C   UNL     1      -3.397  -0.589   3.037  0.00  0.00    +0.003 C 
ATOM      5  C   UNL     1      -4.717  -1.096   3.133  0.00  0.00    +0.074 C 
ATOM      6  C   UNL     1      -2.529   0.681   3.428  0.00  0.00    +0.167 C 
ATOM      7  O   UNL     1      -2.956   1.456   4.283  0.00  0.00    -0.292 OA
ATOM      8  C   UNL     1      -1.068   0.986   2.618  0.00  0.00    +0.089 C 
ATOM      9  C   UNL     1      -1.267  -0.070   1.647  0.00  0.00    +0.043 C 
ATOM     10  C   UNL     1      -2.548   0.770   0.968  0.00  0.00    -0.022 C 
ATOM     11  C   UNL     1      -2.364   0.683  -0.320  0.00  0.00    -0.047 C 
ATOM     12  C   UNL     1      -0.987   1.551  -0.235  0.00  0.00    +0.065 C 
ATOM     13  C   UNL     1      -0.665   2.076   1.440  0.00  0.00    -0.062 C 
ATOM     14  C   UNL     1      -0.336   3.339   1.745  0.00  0.00    +0.008 C 
ENDROOT
TORSDOF 0
