REMARK  Name = 
REMARK  2 active torsions:
REMARK  status: ('A' for Active; 'I' for Inactive)
REMARK    1  A    between atoms: C_1  and  N_2
REMARK    2  A    between atoms: N_2  and  C_3
REMARK                            x       y       z     vdW  Elec       q    Type
REMARK                         _______ _______ _______ _____ _____    ______ ____
ROOT
ATOM      1  C   UNL     1       3.261   0.659   0.921  0.00  0.00    +0.027 A 
ATOM      2  C   UNL     1       2.795   0.627   2.239  0.00  0.00    +0.023 A 
ATOM      3  C   UNL     1       3.581   1.092   3.299  0.00  0.00    +0.002 A 
ATOM      4  C   UNL     1       4.837   1.639   3.050  0.00  0.00    +0.000 A 
ATOM      5  C   UNL     1       5.303   1.722   1.742  0.00  0.00    +0.002 A 
ATOM      6  C   UNL     1       4.517   1.241   0.690  0.00  0.00    +0.023 A 
ENDROOT
BRANCH   1   8
ATOM      7  C   UNL     1       1.234  -0.409  -0.011  0.00  0.00    +0.125 C 
ATOM      8  N   UNL     1       2.505   0.265  -0.186  0.00  0.00    -0.347 N 
ATOM      9  H   UNL     1       3.085  -0.135  -0.919  0.00  0.00    +0.146 HD
ENDBRANCH   1   8
TORSDOF 1
