REMARK  Name = 
REMARK  9 active torsions:
REMARK  status: ('A' for Active; 'I' for Inactive)
REMARK    1  A    between atoms: C_1  and  C_2
REMARK    2  A    between atoms: C_2  and  C_3
REMARK    3  A    between atoms: C_3  and  C_4
REMARK    4  A    between atoms: C_5  and  C_6
REMARK    5  A    between atoms: C_5  and  C_7
REMARK    6  A    between atoms: C_7  and  C_8
REMARK    7  A    between atoms: C_8  and  C_10
REMARK    8  A    between atoms: C_10  and  C_11
REMARK    9  A    between atoms: C_11  and  N_12
REMARK                            x       y       z     vdW  Elec       q    Type
REMARK                         _______ _______ _______ _____ _____    ______ ____
ROOT
ATOM      1  C   UNL     1       7.090   2.244   3.573  0.00  0.00    -0.071 C 
ATOM      2  C   UNL     1       6.892   3.551   3.830  0.00  0.00    +0.008 C 
ENDROOT
BRANCH   1   3
ATOM      3  C   UNL     1       6.493   1.594   2.338  0.00  0.00    +0.060 C 
BRANCH   3   5
ATOM      4  C   UNL     1       4.290   1.924   1.221  0.00  0.00    -0.028 C 
ATOM      5  C   UNL     1       4.981   1.501   2.302  0.00  0.00    -0.073 C 
ATOM      6  C   UNL     1       4.333   0.791   3.467  0.00  0.00    +0.039 C 
BRANCH   4   7
ATOM      7  C   UNL     1       2.810   1.726   1.048  0.00  0.00    +0.027 C 
BRANCH   7   9
ATOM      8  C   UNL     1       0.735   2.023  -0.298  0.00  0.00    +0.004 C 
ATOM      9  C   UNL     1       2.240   2.258  -0.265  0.00  0.00    +0.001 C 
ENDBRANCH   7   9
ENDBRANCH   4   7
ENDBRANCH   3   5
ENDBRANCH   1   3
BRANCH   1  10
ATOM     10  C   UNL     1       7.950   1.408   4.513  0.00  0.00    +0.049 C 
BRANCH  10  11
ATOM     11  C   UNL     1       8.780   0.299   3.835  0.00  0.00    +0.108 C 
BRANCH  11  12
ATOM     12  N   UNL     1       9.658  -0.417   4.743  0.00  0.00    -0.318 N 
ATOM     13  C   UNL     1       9.157  -1.276   5.690  0.00  0.00    +0.325 C 
ATOM     14  O   UNL     1       7.976  -1.433   5.961  0.00  0.00    -0.280 OA
ATOM     15  H   UNL     1      10.633  -0.522   4.488  0.00  0.00    +0.148 HD
ENDBRANCH  11  12
ENDBRANCH  10  11
ENDBRANCH   1  10
TORSDOF 7
