REMARK  Name = 
REMARK  1 active torsions:
REMARK  status: ('A' for Active; 'I' for Inactive)
REMARK    1  A    between atoms: C_2  and  C_3
REMARK                            x       y       z     vdW  Elec       q    Type
REMARK                         _______ _______ _______ _____ _____    ______ ____
ROOT
ATOM      1  C   UNL     1       1.050  -0.083   0.026  0.00  0.00    +0.003 C 
ATOM      2  C   UNL     1       2.354  -0.083   0.026  0.00  0.00    -0.109 C 
ATOM      3  C   UNL     1       3.874  -0.083   0.026  0.00  0.00    +0.106 C 
ENDROOT
TORSDOF 0
