REMARK  Name = 
REMARK  1 active torsions:
REMARK  status: ('A' for Active; 'I' for Inactive)
REMARK    1  A    between atoms: N_2  and  C_3
REMARK                            x       y       z     vdW  Elec       q    Type
REMARK                         _______ _______ _______ _____ _____    ______ ____
ROOT
ATOM      1  C   UNL     1       0.931   0.046   0.057  0.00  0.00    +0.174 C 
ATOM      2  N   UNL     1       1.461  -1.629  -0.679  0.00  0.00    -0.291 NA
ATOM      3  C   UNL     1       1.806  -2.569   0.471  0.00  0.00    +0.106 C 
ATOM      4  C   UNL     1       2.970  -1.754  -1.683  0.00  0.00    +0.112 C 
ATOM      5  C   UNL     1       4.500  -2.556  -1.719  0.00  0.00    -0.014 C 
ATOM      6  C   UNL     1       5.788  -2.155  -2.037  0.00  0.00    -0.011 C 
ATOM      7  C   UNL     1       6.506  -0.974  -2.692  0.00  0.00    +0.128 C 
ATOM      8  N   UNL     1       6.851   0.077  -1.717  0.00  0.00    -0.346 N 
ATOM      9  C   UNL     1       5.761   0.582  -1.069  0.00  0.00    +0.076 C 
ATOM     10  C   UNL     1       5.275   0.046   0.057  0.00  0.00    +0.074 C 
ATOM     11  C   UNL     1       3.755   0.046   0.057  0.00  0.00    -0.072 C 
ATOM     12  C   UNL     1       2.451   0.046   0.057  0.00  0.00    -0.082 C 
ATOM     13  H   UNL     1       7.560  -0.235  -1.052  0.00  0.00    +0.146 HD
ENDROOT
TORSDOF 0
