REMARK  Name = 
REMARK  8 active torsions:
REMARK  status: ('A' for Active; 'I' for Inactive)
REMARK    1  A    between atoms: C_4  and  C_8
REMARK    2  A    between atoms: C_6  and  C_7
REMARK    3  A    between atoms: C_9  and  N_10
REMARK    4  A    between atoms: N_10  and  C_11
REMARK    5  A    between atoms: C_11  and  C_13
REMARK    6  A    between atoms: C_13  and  C_14
REMARK    7  A    between atoms: C_13  and  N_15
REMARK    8  A    between atoms: N_17  and  C_18
REMARK                            x       y       z     vdW  Elec       q    Type
REMARK                         _______ _______ _______ _____ _____    ______ ____
ROOT
ATOM      1  N   UNL     1      -1.732   5.037   0.024  0.00  0.00    -0.323 N 
ATOM      2  H   UNL     1      -2.738   5.105   0.162  0.00  0.00    +0.151 HD
ENDROOT
BRANCH   1   4
ATOM      3  C   UNL     1      -1.840   2.585  -0.029  0.00  0.00    +0.023 C 
ATOM      4  C   UNL     1      -1.207   3.766  -0.021  0.00  0.00    +0.072 C 
BRANCH   3   8
ATOM      5  C   UNL     1       0.232  -1.172  -0.050  0.00  0.00    +0.003 A 
ATOM      6  C   UNL     1      -1.003  -1.038  -0.683  0.00  0.00    +0.001 A 
ATOM      7  C   UNL     1      -1.673   0.189  -0.669  0.00  0.00    +0.008 A 
ATOM      8  C   UNL     1      -1.114   1.300  -0.029  0.00  0.00    -0.024 A 
ATOM      9  C   UNL     1       0.118   1.139   0.630  0.00  0.00    +0.011 A 
ATOM     10  C   UNL     1       0.804  -0.084   0.614  0.00  0.00    -0.050 A 
ATOM     11  C   UNL     1       2.135  -0.227   1.292  0.00  0.00    +0.044 C 
ENDBRANCH   3   8
ENDBRANCH   1   4
BRANCH   1  12
ATOM     12  C   UNL     1      -1.038   6.247   0.045  0.00  0.00    +0.021 C 
ATOM     13  C   UNL     1       0.190   6.383  -0.499  0.00  0.00    +0.030 C 
BRANCH  12  14
ATOM     14  C   UNL     1      -1.747   7.435   0.727  0.00  0.00    +0.112 C 
ATOM     15  C   UNL     1      -0.807   8.450   1.387  0.00  0.00    +0.034 C 
BRANCH  14  16
ATOM     16  N   UNL     1      -2.572   8.086  -0.272  0.00  0.00    -0.329 N 
ATOM     17  C   UNL     1      -3.665   8.855  -0.013  0.00  0.00    +0.171 C 
ATOM     18  N   UNL     1      -4.264   9.534  -0.928  0.00  0.00    -0.176 NA
ATOM     19  H   UNL     1      -2.180   8.166  -1.203  0.00  0.00    +0.147 HD
BRANCH  18  20
ATOM     20  C   UNL     1      -5.371  10.243  -0.526  0.00  0.00    +0.352 C 
ATOM     21  O   UNL     1      -5.816  10.325   0.615  0.00  0.00    -0.277 OA
ENDBRANCH  18  20
ENDBRANCH  14  16
ENDBRANCH  12  14
ENDBRANCH   1  12
TORSDOF 6
