REMARK  Name = 
REMARK  9 active torsions:
REMARK  status: ('A' for Active; 'I' for Inactive)
REMARK    1  A    between atoms: C_1  and  O_2
REMARK    2  A    between atoms: O_2  and  C_3
REMARK    3  A    between atoms: C_4  and  C_5
REMARK    4  A    between atoms: C_6  and  C_7
REMARK    5  A    between atoms: C_8  and  C_9
REMARK    6  A    between atoms: C_9  and  C_11
REMARK    7  A    between atoms: C_15  and  C_16
REMARK    8  A    between atoms: C_17  and  C_18
REMARK    9  A    between atoms: C_19  and  C_20
REMARK                            x       y       z     vdW  Elec       q    Type
REMARK                         _______ _______ _______ _____ _____    ______ ____
ROOT
ATOM      1  C   UNL     1      10.976  -5.034  -0.594  0.00  0.00    +0.078 C 
ATOM      2  C   UNL     1      11.720  -5.926   0.390  0.00  0.00    -0.042 C 
ATOM      3  C   UNL     1      11.898  -7.240   0.543  0.00  0.00    +0.013 C 
ATOM      4  C   UNL     1      12.225  -4.772   1.085  0.00  0.00    +0.008 C 
ATOM      5  C   UNL     1      11.695  -3.921   0.174  0.00  0.00    -0.035 C 
ENDROOT
BRANCH   1   6
ATOM      6  C   UNL     1       9.470  -5.111  -0.489  0.00  0.00    -0.043 C 
ATOM      7  C   UNL     1       8.831  -5.982  -1.292  0.00  0.00    +0.013 C 
BRANCH   6   9
ATOM      8  C   UNL     1       7.831  -4.575   1.297  0.00  0.00    +0.000 C 
ATOM      9  C   UNL     1       8.722  -4.201   0.364  0.00  0.00    +0.004 C 
BRANCH   8  11
ATOM     10  C   UNL     1       6.217  -3.977   3.051  0.00  0.00    +0.003 C 
ATOM     11  C   UNL     1       7.094  -3.621   2.100  0.00  0.00    +0.000 C 
BRANCH  10  13
ATOM     12  C   UNL     1       4.597  -3.370   4.787  0.00  0.00    +0.186 C 
ATOM     13  C   UNL     1       5.470  -3.019   3.838  0.00  0.00    +0.037 C 
BRANCH  12  15
ATOM     14  C   UNL     1       3.022  -3.009   6.465  0.00  0.00    +0.276 C 
ATOM     15  O   UNL     1       3.905  -2.431   5.506  0.00  0.00    -0.503 OA
ENDBRANCH  12  15
ENDBRANCH  10  13
ENDBRANCH   8  11
ENDBRANCH   6   9
ENDBRANCH   1   6
BRANCH   5  16
ATOM     16  C   UNL     1      11.787  -2.446   0.010  0.00  0.00    +0.004 C 
ATOM     17  C   UNL     1      11.200  -1.796  -1.004  0.00  0.00    +0.000 C 
BRANCH  17  18
ATOM     18  C   UNL     1      11.236  -0.359  -1.155  0.00  0.00    -0.000 C 
ATOM     19  C   UNL     1      10.633   0.267  -2.176  0.00  0.00    -0.001 C 
BRANCH  19  20
ATOM     20  C   UNL     1      10.623   1.702  -2.327  0.00  0.00    -0.008 C 
ATOM     21  C   UNL     1      10.015   2.318  -3.347  0.00  0.00    +0.008 C 
ENDBRANCH  19  20
ENDBRANCH  17  18
ENDBRANCH   5  16
TORSDOF 8
