REMARK  Name = 
REMARK  2 active torsions:
REMARK  status: ('A' for Active; 'I' for Inactive)
REMARK    1  A    between atoms: C_21  and  C_22
REMARK    2  A    between atoms: C_24  and  C_25
REMARK                            x       y       z     vdW  Elec       q    Type
REMARK                         _______ _______ _______ _____ _____    ______ ____
ROOT
ATOM      1  C   UNL     1       0.988  -1.423   0.265  0.00  0.00    +0.039 C 
ATOM      2  C   UNL     1       0.119  -0.338  -0.508  0.00  0.00    +0.042 C 
ATOM      3  C   UNL     1       1.264   0.299  -1.205  0.00  0.00    -0.018 C 
ATOM      4  C   UNL     1       2.208   0.758  -0.320  0.00  0.00    +0.006 C 
ATOM      5  C   UNL     1       1.865   0.706   1.360  0.00  0.00    -0.006 C 
ATOM      6  C   UNL     1       1.837  -0.675   1.460  0.00  0.00    -0.016 C 
ATOM      7  C   UNL     1       0.939   1.863   2.406  0.00  0.00    +0.058 C 
ATOM      8  C   UNL     1      -0.274   2.305   2.838  0.00  0.00    +0.037 C 
ATOM      9  N   UNL     1       0.438   3.368   2.401  0.00  0.00    -0.300 N 
ATOM     10  C   UNL     1      -0.338   4.358   1.266  0.00  0.00    +0.115 C 
ATOM     11  C   UNL     1       0.631   5.301   0.513  0.00  0.00    +0.046 C 
ATOM     12  C   UNL     1       1.789   4.427   0.317  0.00  0.00    -0.025 C 
ATOM     13  C   UNL     1       1.573   3.099   0.226  0.00  0.00    -0.004 C 
ATOM     14  C   UNL     1       0.065   2.111   0.022  0.00  0.00    -0.000 C 
ATOM     15  C   UNL     1      -0.530   0.754   0.416  0.00  0.00    -0.058 C 
ATOM     16  C   UNL     1      -0.883  -0.354   1.856  0.00  0.00    +0.066 C 
ATOM     17  C   UNL     1      -1.785   2.351   2.964  0.00  0.00    +0.080 C 
ATOM     18  C   UNL     1      -2.479   1.202   3.619  0.00  0.00    -0.021 C 
ATOM     19  C   UNL     1      -3.278   0.376   2.909  0.00  0.00    -0.004 C 
ATOM     20  C   UNL     1      -3.062  -1.043   3.050  0.00  0.00    +0.004 C 
ATOM     21  C   UNL     1      -1.950  -1.515   2.442  0.00  0.00    -0.040 C 
ENDROOT
BRANCH  21  22
ATOM     22  C   UNL     1      -1.636  -2.983   2.650  0.00  0.00    -0.041 C 
ATOM     23  C   UNL     1      -0.642  -3.808   2.513  0.00  0.00    -0.015 C 
ATOM     24  C   UNL     1      -1.870  -4.220   1.902  0.00  0.00    +0.039 C 
ATOM     25  C   UNL     1      -2.388  -5.560   2.356  0.00  0.00    +0.017 C 
ENDBRANCH  21  22
TORSDOF 1
