REMARK  Name = 
REMARK  3 active torsions:
REMARK  status: ('A' for Active; 'I' for Inactive)
REMARK    1  A    between atoms: C_1  and  C_2
REMARK    2  A    between atoms: C_2  and  C_3
REMARK    3  A    between atoms: C_4  and  N_5
REMARK                            x       y       z     vdW  Elec       q    Type
REMARK                         _______ _______ _______ _____ _____    ______ ____
ROOT
ATOM      1  C   UNL     1       3.159   1.362  -0.249  0.00  0.00    -0.012 C 
ATOM      2  C   UNL     1       4.469   1.633  -0.292  0.00  0.00    +0.070 C 
ENDROOT
BRANCH   2   3
ATOM      3  N   UNL     1       4.937   2.900  -0.503  0.00  0.00    -0.295 N 
ATOM      4  C   UNL     1       6.259   3.248  -0.563  0.00  0.00    +0.329 C 
ATOM      5  O   UNL     1       6.644   4.394  -0.755  0.00  0.00    -0.279 OA
ATOM      6  H   UNL     1       4.288   3.668  -0.631  0.00  0.00    +0.154 HD
ENDBRANCH   2   3
BRANCH   1   8
ATOM      7  C   UNL     1       1.749  -0.088   1.219  0.00  0.00    +0.008 C 
ATOM      8  C   UNL     1       2.610  -0.019  -0.032  0.00  0.00    +0.025 C 
ENDBRANCH   1   8
TORSDOF 2
