REMARK  Name = 
REMARK  14 active torsions:
REMARK  status: ('A' for Active; 'I' for Inactive)
REMARK    1  A    between atoms: C_1  and  C_2
REMARK    2  A    between atoms: C_2  and  O_3
REMARK    3  A    between atoms: O_3  and  C_4
REMARK    4  A    between atoms: C_4  and  C_5
REMARK    5  A    between atoms: C_5  and  C_7
REMARK    6  A    between atoms: C_7  and  C_8
REMARK    7  A    between atoms: C_8  and  C_10
REMARK    8  A    between atoms: C_11  and  C_12
REMARK    9  A    between atoms: C_13  and  C_14
REMARK   10  A    between atoms: C_15  and  C_16
REMARK   11  A    between atoms: C_16  and  C_17
REMARK   12  A    between atoms: C_16  and  C_18
REMARK   13  A    between atoms: C_18  and  C_19
REMARK   14  A    between atoms: C_19  and  C_20
REMARK                            x       y       z     vdW  Elec       q    Type
REMARK                         _______ _______ _______ _____ _____    ______ ____
ROOT
ATOM      1  C   UNL     1       4.400   1.334  -0.712  0.00  0.00    +0.123 C 
ATOM      2  C   UNL     1       4.755   2.521  -1.254  0.00  0.00    +0.045 C 
ENDROOT
BRANCH   1   3
ATOM      3  C   UNL     1       5.337   0.269  -0.319  0.00  0.00    -0.007 C 
ATOM      4  C   UNL     1       6.187  -0.254  -1.224  0.00  0.00    +0.016 C 
BRANCH   3   5
ATOM      5  C   UNL     1       5.404  -0.172   1.140  0.00  0.00    +0.093 C 
BRANCH   5   6
ATOM      6  C   UNL     1       4.322  -1.099   1.732  0.00  0.00    +0.037 C 
ATOM      7  N   UNL     1       3.214  -1.396   1.127  0.00  0.00    -0.304 NA
ATOM      8  H   UNL     1       3.164  -0.896   0.221  0.00  0.00    +0.186 HD
BRANCH   6   9
ATOM      9  C   UNL     1       4.597  -1.677   3.092  0.00  0.00    +0.018 C 
ATOM     10  C   UNL     1       3.580  -1.869   3.951  0.00  0.00    -0.028 C 
ATOM     11  C   UNL     1       3.683  -2.475   5.315  0.00  0.00    +0.035 C 
ENDBRANCH   6   9
ENDBRANCH   5   6
ENDBRANCH   3   5
ENDBRANCH   1   3
BRANCH   2  12
ATOM     12  C   UNL     1       6.100   3.009  -1.506  0.00  0.00    -0.000 C 
ATOM     13  C   UNL     1       6.377   4.197  -2.080  0.00  0.00    -0.024 C 
BRANCH  13  14
ATOM     14  C   UNL     1       7.792   4.601  -2.445  0.00  0.00    +0.009 C 
ATOM     15  C   UNL     1       7.852   4.893  -3.949  0.00  0.00    +0.012 C 
BRANCH  14  16
ATOM     16  C   UNL     1       8.329   5.812  -1.659  0.00  0.00    +0.007 C 
BRANCH  16  17
ATOM     17  C   UNL     1       8.394   5.580  -0.144  0.00  0.00    -0.003 C 
ATOM     18  C   UNL     1       9.018   6.771   0.572  0.00  0.00    +0.004 C 
ENDBRANCH  16  17
ENDBRANCH  14  16
ENDBRANCH  13  14
ENDBRANCH   2  12
BRANCH   1  19
ATOM     19  O   UNL     1       3.087   0.940  -0.498  0.00  0.00    -0.492 OA
BRANCH  19  21
ATOM     20  C   UNL     1       0.785   1.380   0.005  0.00  0.00    +0.048 C 
ATOM     21  C   UNL     1       2.072   1.945  -0.566  0.00  0.00    +0.225 C 
ENDBRANCH  19  21
ENDBRANCH   1  19
TORSDOF 10
