REMARK  Name = 
REMARK  0 active torsions:
REMARK  status: ('A' for Active; 'I' for Inactive)
REMARK                            x       y       z     vdW  Elec       q    Type
REMARK                         _______ _______ _______ _____ _____    ______ ____
ROOT
ATOM      1  C   UNL     1       1.438  -0.514  -0.448  0.00  0.00    -0.052 C 
ATOM      2  C   UNL     1       2.486  -0.962  -0.855  0.00  0.00    -0.052 C 
ATOM      3  C   UNL     1       2.585   0.060   0.074  0.00  0.00    +0.068 C 
ATOM      4  C   UNL     1       3.235   0.894   0.831  0.00  0.00    +0.036 C 
ENDROOT
TORSDOF 0
