REMARK  Name = 
REMARK  7 active torsions:
REMARK  status: ('A' for Active; 'I' for Inactive)
REMARK    1  A    between atoms: C_2  and  C_3
REMARK    2  A    between atoms: C_3  and  C_4
REMARK    3  A    between atoms: C_3  and  C_9
REMARK    4  A    between atoms: C_7  and  C_8
REMARK    5  A    between atoms: C_9  and  C_10
REMARK    6  A    between atoms: C_10  and  C_11
REMARK    7  A    between atoms: C_11  and  C_13
REMARK                            x       y       z     vdW  Elec       q    Type
REMARK                         _______ _______ _______ _____ _____    ______ ____
ROOT
ATOM      1  C   UNL     1       3.120  -1.025   0.948  0.00  0.00    +0.042 C 
ENDROOT
BRANCH   1   2
ATOM      2  C   UNL     1       2.716  -2.462   0.718  0.00  0.00    +0.040 C 
ATOM      3  C   UNL     1       2.146  -3.225   1.606  0.00  0.00    -0.073 C 
ATOM      4  C   UNL     1       1.603  -3.910   2.431  0.00  0.00    -0.074 C 
ATOM      5  C   UNL     1       0.990  -4.627   3.327  0.00  0.00    +0.030 C 
ATOM      6  C   UNL     1       1.578  -5.782   4.065  0.00  0.00    +0.045 C 
ENDBRANCH   1   2
BRANCH   1   8
ATOM      7  C   UNL     1       1.513   0.852   0.427  0.00  0.00    +0.004 C 
ATOM      8  C   UNL     1       2.345  -0.116   0.019  0.00  0.00    -0.026 C 
ENDBRANCH   1   8
BRANCH   1   9
ATOM      9  C   UNL     1       4.642  -0.858   0.747  0.00  0.00    +0.017 C 
BRANCH   9  10
ATOM     10  C   UNL     1       5.138   0.554   1.099  0.00  0.00    +0.035 C 
BRANCH  10  11
ATOM     11  C   UNL     1       6.628   0.717   0.868  0.00  0.00    -0.055 C 
ATOM     12  C   UNL     1       7.508   0.532   1.867  0.00  0.00    +0.012 C 
BRANCH  11  13
ATOM     13  C   UNL     1       7.025   1.196  -0.447  0.00  0.00    -0.005 C 
ATOM     14  C   UNL     1       8.180   0.923  -1.067  0.00  0.00    +0.009 C 
ENDBRANCH  11  13
ENDBRANCH  10  11
ENDBRANCH   9  10
ENDBRANCH   1   9
TORSDOF 6
