REMARK  Name = 
REMARK  1 active torsions:
REMARK  status: ('A' for Active; 'I' for Inactive)
REMARK    1  A    between atoms: C_1  and  C_2
REMARK                            x       y       z     vdW  Elec       q    Type
REMARK                         _______ _______ _______ _____ _____    ______ ____
ROOT
ATOM      1  C   UNL     1       1.055   0.043  -0.051  0.00  0.00    +0.045 C 
ATOM      2  C   UNL     1       2.542   0.163  -0.083  0.00  0.00    +0.030 C 
ATOM      3  C   UNL     1       3.211   1.279  -0.003  0.00  0.00    -0.073 C 
ATOM      4  C   UNL     1       3.852   2.288   0.095  0.00  0.00    -0.061 C 
ATOM      5  C   UNL     1       4.553   3.376   0.250  0.00  0.00    +0.032 C 
ATOM      6  C   UNL     1       5.651   3.503   1.206  0.00  0.00    +0.018 C 
ATOM      7  C   UNL     1       5.892   4.812   1.442  0.00  0.00    +0.009 C 
ATOM      8  C   UNL     1       4.943   5.625   0.675  0.00  0.00    -0.024 C 
ATOM      9  C   UNL     1       4.770   6.940   0.845  0.00  0.00    +0.017 C 
ATOM     10  C   UNL     1       4.191   4.721  -0.205  0.00  0.00    -0.010 C 
ATOM     11  C   UNL     1       3.442   5.048  -1.265  0.00  0.00    +0.018 C 
ENDROOT
TORSDOF 0
