REMARK  Name = 
REMARK  3 active torsions:
REMARK  status: ('A' for Active; 'I' for Inactive)
REMARK    1  A    between atoms: C_1  and  C_2
REMARK    2  A    between atoms: C_2  and  C_3
REMARK    3  A    between atoms: C_15  and  C_16
REMARK                            x       y       z     vdW  Elec       q    Type
REMARK                         _______ _______ _______ _____ _____    ______ ____
ROOT
ATOM      1  C   UNL     1       3.187  -0.862   4.028  0.00  0.00    -0.002 C 
ATOM      2  C   UNL     1       1.695  -0.508   3.276  0.00  0.00    +0.015 C 
ATOM      3  C   UNL     1       1.031   0.797   3.505  0.00  0.00    -0.006 C 
ATOM      4  C   UNL     1       2.176   1.845   2.844  0.00  0.00    +0.030 C 
ATOM      5  C   UNL     1       3.637   1.274   2.503  0.00  0.00    -0.030 C 
ATOM      6  C   UNL     1       4.156   0.133   3.050  0.00  0.00    -0.024 C 
ATOM      7  C   UNL     1       0.225   0.406   4.841  0.00  0.00    +0.008 C 
ATOM      8  C   UNL     1       0.461  -0.987   5.659  0.00  0.00    +0.036 C 
ATOM      9  C   UNL     1       0.529  -0.904   7.189  0.00  0.00    +0.025 C 
ATOM     10  C   UNL     1       1.498  -0.217   7.733  0.00  0.00    -0.111 C 
ATOM     11  C   UNL     1       2.650   0.397   7.621  0.00  0.00    +0.049 C 
ATOM     12  C   UNL     1       3.551  -0.515   6.066  0.00  0.00    +0.060 C 
ATOM     13  C   UNL     1       4.330   1.052   5.602  0.00  0.00    +0.071 C 
ATOM     14  C   UNL     1       4.350   2.656   5.982  0.00  0.00    +0.022 C 
ATOM     15  C   UNL     1       3.077   1.131   4.928  0.00  0.00    -0.093 C 
ATOM     16  C   UNL     1       2.880   0.792   6.171  0.00  0.00    -0.062 C 
ENDROOT
BRANCH   1  18
ATOM     17  C   UNL     1       3.162  -1.897   1.349  0.00  0.00    +0.005 C 
ATOM     18  C   UNL     1       3.351  -2.183   3.012  0.00  0.00    +0.008 C 
ENDBRANCH   1  18
TORSDOF 1
