REMARK  Name = 
REMARK  10 active torsions:
REMARK  status: ('A' for Active; 'I' for Inactive)
REMARK    1  A    between atoms: C_3  and  N_4
REMARK    2  A    between atoms: C_14  and  C_15
REMARK    3  A    between atoms: C_16  and  C_17
REMARK    4  A    between atoms: C_18  and  C_19
REMARK    5  A    between atoms: C_20  and  N_21
REMARK    6  A    between atoms: C_22  and  C_23
REMARK    7  A    between atoms: C_24  and  N_25
REMARK    8  A    between atoms: C_24  and  C_29
REMARK    9  A    between atoms: N_25  and  C_26
REMARK   10  A    between atoms: C_27  and  C_28
REMARK                            x       y       z     vdW  Elec       q    Type
REMARK                         _______ _______ _______ _____ _____    ______ ____
ROOT
ATOM      1  C   UNL     1      -1.091  -3.806  -1.005  0.00  0.00    +0.095 C 
ATOM      2  N   UNL     1       0.312  -4.190  -0.649  0.00  0.00    -0.291 NA
ATOM      3  C   UNL     1       0.549  -4.623   0.697  0.00  0.00    +0.110 C 
ATOM      4  C   UNL     1       1.866  -5.323   0.907  0.00  0.00    +0.015 C 
ATOM      5  C   UNL     1       2.165  -5.263   2.222  0.00  0.00    -0.001 C 
ATOM      6  C   UNL     1       1.378  -4.208   2.823  0.00  0.00    +0.003 C 
ATOM      7  C   UNL     1       0.580  -3.661   1.874  0.00  0.00    -0.027 C 
ATOM      8  C   UNL     1       0.432  -2.150   1.889  0.00  0.00    +0.069 C 
ATOM      9  C   UNL     1      -0.619  -1.477   0.969  0.00  0.00    -0.043 C 
ATOM     10  C   UNL     1      -0.684  -1.611  -0.385  0.00  0.00    -0.013 C 
ATOM     11  C   UNL     1      -1.834  -2.812  -0.061  0.00  0.00    +0.056 C 
ATOM     12  C   UNL     1      -2.057  -1.631   0.858  0.00  0.00    -0.036 C 
ATOM     13  C   UNL     1      -3.109  -0.916   1.297  0.00  0.00    +0.004 C 
ATOM     14  H   UNL     1       0.931  -3.407  -0.843  0.00  0.00    +0.124 HD
ENDROOT
BRANCH   3  15
ATOM     15  N   UNL     1      -0.355  -5.751   0.893  0.00  0.00    -0.306 NA
ATOM     16  H   UNL     1      -0.386  -6.231  -0.002  0.00  0.00    +0.121 HD
ATOM     17  H   UNL     1      -1.283  -5.427   1.111  0.00  0.00    +0.121 HD
ENDBRANCH   3  15
BRANCH  13  18
ATOM     18  C   UNL     1      -4.509  -1.099   0.929  0.00  0.00    +0.000 C 
ATOM     19  C   UNL     1      -5.467  -0.281   1.415  0.00  0.00    +0.000 C 
BRANCH  19  20
ATOM     20  C   UNL     1      -6.878  -0.245   1.061  0.00  0.00    +0.000 C 
ATOM     21  C   UNL     1      -7.723   0.628   1.642  0.00  0.00    +0.001 C 
BRANCH  21  22
ATOM     22  C   UNL     1      -9.116   0.851   1.305  0.00  0.00    +0.020 C 
ATOM     23  C   UNL     1      -9.859   1.776   1.945  0.00  0.00    +0.110 C 
BRANCH  23  24
ATOM     24  N   UNL     1     -11.168   2.123   1.611  0.00  0.00    -0.263 NA
ATOM     25  C   UNL     1     -11.739   2.916   2.458  0.00  0.00    +0.112 C 
BRANCH  25  26
ATOM     26  C   UNL     1     -13.097   3.488   2.235  0.00  0.00    +0.038 C 
ATOM     27  C   UNL     1     -13.679   4.467   2.987  0.00  0.00    +0.006 C 
ATOM     28  C   UNL     1     -15.127   4.822   2.688  0.00  0.00    +0.060 C 
BRANCH  27  29
ATOM     29  N   UNL     1     -13.134   5.196   4.036  0.00  0.00    -0.324 N 
ATOM     30  H   UNL     1     -13.809   5.627   4.666  0.00  0.00    +0.151 HD
BRANCH  29  31
ATOM     31  C   UNL     1     -11.842   5.598   4.241  0.00  0.00    +0.067 C 
ATOM     32  C   UNL     1     -11.351   6.254   5.299  0.00  0.00    -0.015 C 
ATOM     33  C   UNL     1      -9.897   6.570   5.426  0.00  0.00    +0.036 C 
ENDBRANCH  29  31
ENDBRANCH  27  29
ENDBRANCH  25  26
ENDBRANCH  23  24
ENDBRANCH  21  22
ENDBRANCH  19  20
ENDBRANCH  13  18
TORSDOF 8
