REMARK  Name = 
REMARK  18 active torsions:
REMARK  status: ('A' for Active; 'I' for Inactive)
REMARK    1  A    between atoms: C_1  and  N_2
REMARK    2  A    between atoms: N_2  and  C_3
REMARK    3  A    between atoms: C_3  and  C_4
REMARK    4  A    between atoms: C_4  and  N_5
REMARK    5  A    between atoms: C_12  and  C_13
REMARK    6  A    between atoms: C_12  and  N_19
REMARK    7  A    between atoms: C_13  and  C_14
REMARK    8  A    between atoms: C_15  and  N_16
REMARK    9  A    between atoms: N_16  and  C_17
REMARK   10  A    between atoms: C_17  and  C_18
REMARK   11  A    between atoms: N_19  and  C_20
REMARK   12  A    between atoms: C_22  and  C_23
REMARK   13  A    between atoms: C_23  and  C_24
REMARK   14  A    between atoms: C_23  and  C_28
REMARK   15  A    between atoms: C_24  and  C_25
REMARK   16  A    between atoms: C_26  and  C_27
REMARK   17  A    between atoms: C_28  and  C_29
REMARK   18  A    between atoms: C_30  and  C_31
REMARK                            x       y       z     vdW  Elec       q    Type
REMARK                         _______ _______ _______ _____ _____    ______ ____
ROOT
ATOM      1  N   UNL     1       5.033   2.331  -1.405  0.00  0.00    -0.334 N 
ATOM      2  C   UNL     1       5.186   2.190  -2.860  0.00  0.00    +0.109 C 
ATOM      3  C   UNL     1       4.148   3.009  -3.637  0.00  0.00    +0.051 C 
ATOM      4  C   UNL     1       3.907   4.444  -3.176  0.00  0.00    -0.048 C 
ATOM      5  C   UNL     1       2.636   4.900  -3.188  0.00  0.00    +0.010 C 
ATOM      6  C   UNL     1       5.411   3.495  -0.761  0.00  0.00    +0.068 C 
ATOM      7  C   UNL     1       5.514   4.733  -1.261  0.00  0.00    +0.018 C 
ATOM      8  C   UNL     1       5.120   5.246  -2.651  0.00  0.00    +0.076 C 
ENDROOT
BRANCH   8   9
ATOM      9  N   UNL     1       6.278   4.991  -3.532  0.00  0.00    -0.331 N 
ATOM     10  H   UNL     1       7.079   4.669  -2.995  0.00  0.00    +0.147 HD
BRANCH   9  11
ATOM     11  C   UNL     1       6.647   5.677  -4.663  0.00  0.00    +0.120 C 
ATOM     12  C   UNL     1       5.849   5.906  -5.656  0.00  0.00    -0.109 C 
ATOM     13  C   UNL     1       5.121   6.090  -6.720  0.00  0.00    +0.029 C 
BRANCH  13  14
ATOM     14  C   UNL     1       5.655   6.005  -8.142  0.00  0.00    +0.027 C 
BRANCH  14  15
ATOM     15  C   UNL     1       6.347   4.643  -8.426  0.00  0.00    +0.035 C 
BRANCH  15  16
ATOM     16  C   UNL     1       5.419   3.460  -8.320  0.00  0.00    -0.031 C 
ATOM     17  C   UNL     1       5.151   2.611  -9.322  0.00  0.00    -0.034 C 
ATOM     18  C   UNL     1       4.161   1.497  -9.209  0.00  0.00    +0.035 C 
ENDBRANCH  15  16
ENDBRANCH  14  15
BRANCH  14  19
ATOM     19  C   UNL     1       4.562   6.285  -9.204  0.00  0.00    +0.035 C 
BRANCH  19  20
ATOM     20  C   UNL     1       3.961   7.663  -9.111  0.00  0.00    -0.031 C 
ATOM     21  C   UNL     1       2.660   7.888  -8.884  0.00  0.00    -0.034 C 
ATOM     22  C   UNL     1       2.042   9.246  -8.804  0.00  0.00    +0.035 C 
ENDBRANCH  19  20
ENDBRANCH  14  19
ENDBRANCH  13  14
ENDBRANCH   9  11
ENDBRANCH   8   9
BRANCH   1  23
ATOM     23  C   UNL     1       4.566   1.148  -0.662  0.00  0.00    +0.119 C 
BRANCH  23  24
ATOM     24  C   UNL     1       3.219   1.438   0.032  0.00  0.00    +0.099 C 
BRANCH  24  26
ATOM     25  C   UNL     1       1.441   0.584   1.407  0.00  0.00    +0.101 C 
ATOM     26  N   UNL     1       2.698   0.260   0.743  0.00  0.00    -0.317 NA
ATOM     27  H   UNL     1       2.538  -0.492   0.074  0.00  0.00    +0.122 HD
ENDBRANCH  24  26
ENDBRANCH  23  24
ENDBRANCH   1  23
BRANCH   8  28
ATOM     28  C   UNL     1       4.844   6.800  -2.535  0.00  0.00    +0.063 C 
BRANCH  28  29
ATOM     29  C   UNL     1       6.010   7.646  -2.063  0.00  0.00    -0.009 C 
ATOM     30  C   UNL     1       5.981   8.432  -0.978  0.00  0.00    +0.063 C 
BRANCH  30  31
ATOM     31  N   UNL     1       7.030   9.154  -0.495  0.00  0.00    -0.350 N 
ATOM     32  H   UNL     1       7.902   9.095  -1.014  0.00  0.00    +0.146 HD
BRANCH  31  33
ATOM     33  C   UNL     1       7.002   9.995   0.686  0.00  0.00    +0.097 C 
ATOM     34  C   UNL     1       8.388  10.547   0.967  0.00  0.00    +0.024 C 
ENDBRANCH  31  33
ENDBRANCH  30  31
ENDBRANCH  28  29
ENDBRANCH   8  28
TORSDOF 14
