REMARK  Name = 
REMARK  7 active torsions:
REMARK  status: ('A' for Active; 'I' for Inactive)
REMARK    1  A    between atoms: C_5  and  C_13
REMARK    2  A    between atoms: C_6  and  C_9
REMARK    3  A    between atoms: C_10  and  C_11
REMARK    4  A    between atoms: C_13  and  C_14
REMARK    5  A    between atoms: C_16  and  C_17
REMARK    6  A    between atoms: C_16  and  O_18
REMARK    7  A    between atoms: O_18  and  C_19
REMARK                            x       y       z     vdW  Elec       q    Type
REMARK                         _______ _______ _______ _____ _____    ______ ____
ROOT
ATOM      1  C   UNL     1       1.324  -1.025  -0.028  0.00  0.00    +0.008 C 
ATOM      2  C   UNL     1       2.157  -2.080  -0.210  0.00  0.00    +0.024 C 
ATOM      3  C   UNL     1       3.277  -1.200  -0.195  0.00  0.00    +0.035 C 
ATOM      4  C   UNL     1       2.455  -0.178   0.081  0.00  0.00    -0.018 C 
ATOM      5  C   UNL     1       2.972   1.241   0.241  0.00  0.00    +0.056 C 
ATOM      6  C   UNL     1       4.445   1.280  -0.306  0.00  0.00    -0.026 C 
ATOM      7  C   UNL     1       5.122   0.110  -0.515  0.00  0.00    +0.076 C 
ATOM      8  N   UNL     1       4.562  -1.169  -0.382  0.00  0.00    -0.320 N 
ATOM      9  H   UNL     1       5.139  -1.962  -0.639  0.00  0.00    +0.152 HD
ENDROOT
BRANCH   6  10
ATOM     10  C   UNL     1       5.074   2.570  -0.583  0.00  0.00    +0.005 C 
ATOM     11  C   UNL     1       4.464   3.762  -0.479  0.00  0.00    -0.000 C 
BRANCH  11  12
ATOM     12  C   UNL     1       5.094   5.030  -0.752  0.00  0.00    -0.008 C 
ATOM     13  C   UNL     1       4.436   6.190  -0.606  0.00  0.00    +0.008 C 
ENDBRANCH  11  12
ENDBRANCH   6  10
BRANCH   5  14
ATOM     14  C   UNL     1       3.046   1.575   1.753  0.00  0.00    +0.047 C 
BRANCH  14  15
ATOM     15  C   UNL     1       1.755   1.473   2.484  0.00  0.00    -0.022 C 
ATOM     16  C   UNL     1       1.546   0.697   3.547  0.00  0.00    +0.028 C 
ATOM     17  C   UNL     1       1.325   2.119   3.707  0.00  0.00    +0.150 C 
ATOM     18  C   UNL     1       2.332   2.904   4.510  0.00  0.00    +0.065 C 
BRANCH  17  19
ATOM     19  O   UNL     1      -0.024   2.610   3.901  0.00  0.00    -0.452 OA
BRANCH  19  20
ATOM     20  C   UNL     1      -0.434   3.644   3.124  0.00  0.00    +0.447 C 
ATOM     21  O   UNL     1       0.220   4.243   2.285  0.00  0.00    -0.255 OA
ENDBRANCH  19  20
ENDBRANCH  17  19
ENDBRANCH  14  15
ENDBRANCH   5  14
TORSDOF 6
