REMARK  Name = 
REMARK  24 active torsions:
REMARK  status: ('A' for Active; 'I' for Inactive)
REMARK    1  A    between atoms: C_4  and  C_5
REMARK    2  A    between atoms: C_5  and  C_6
REMARK    3  A    between atoms: C_6  and  C_7
REMARK    4  A    between atoms: C_7  and  C_8
REMARK    5  A    between atoms: C_8  and  N_9
REMARK    6  A    between atoms: N_9  and  C_10
REMARK    7  A    between atoms: C_15  and  N_16
REMARK    8  A    between atoms: C_17  and  C_18
REMARK    9  A    between atoms: C_17  and  C_19
REMARK   10  A    between atoms: N_20  and  C_21
REMARK   11  A    between atoms: C_21  and  N_23
REMARK   12  A    between atoms: C_24  and  N_25
REMARK   13  A    between atoms: C_27  and  C_28
REMARK   14  A    between atoms: C_28  and  N_29
REMARK   15  A    between atoms: N_29  and  C_30
REMARK   16  A    between atoms: C_31  and  C_32
REMARK   17  A    between atoms: C_33  and  C_34
REMARK   18  A    between atoms: C_34  and  C_35
REMARK   19  A    between atoms: C_35  and  C_36
REMARK   20  A    between atoms: C_36  and  C_37
REMARK   21  A    between atoms: C_37  and  N_38
REMARK   22  A    between atoms: N_38  and  C_39
REMARK   23  A    between atoms: C_40  and  C_41
REMARK   24  A    between atoms: C_42  and  C_43
REMARK                            x       y       z     vdW  Elec       q    Type
REMARK                         _______ _______ _______ _____ _____    ______ ____
ROOT
ATOM      1  C   UNL     1       5.156  -5.227   5.279  0.00  0.00    +0.147 C 
ATOM      2  C   UNL     1       5.619  -5.987   6.285  0.00  0.00    +0.060 C 
ENDROOT
BRANCH   1   4
ATOM      3  C   UNL     1       5.934  -3.139   6.063  0.00  0.00    +0.136 C 
ATOM      4  N   UNL     1       5.317  -3.811   5.149  0.00  0.00    -0.235 NA
BRANCH   3   6
ATOM      5  N   UNL     1       5.678  -0.742   5.275  0.00  0.00    -0.249 NA
ATOM      6  C   UNL     1       6.218  -1.609   6.090  0.00  0.00    +0.057 C 
ATOM      7  C   UNL     1       7.251  -1.229   7.112  0.00  0.00    +0.067 C 
BRANCH   5  13
ATOM      8  C   UNL     1       7.069   1.448   4.972  0.00  0.00    +0.053 A 
ATOM      9  C   UNL     1       6.972   2.869   4.747  0.00  0.00    +0.025 A 
ATOM     10  C   UNL     1       5.763   3.535   4.613  0.00  0.00    +0.002 A 
ATOM     11  C   UNL     1       4.647   2.825   4.895  0.00  0.00    +0.002 A 
ATOM     12  C   UNL     1       4.793   1.502   5.330  0.00  0.00    +0.029 A 
ATOM     13  C   UNL     1       5.924   0.701   5.274  0.00  0.00    +0.085 A 
BRANCH   8  14
ATOM     14  N   UNL     1       8.368   0.925   4.907  0.00  0.00    -0.342 N 
ATOM     15  H   UNL     1       8.999   1.631   4.536  0.00  0.00    +0.146 HD
BRANCH  14  16
ATOM     16  C   UNL     1       8.512  -0.324   4.196  0.00  0.00    +0.101 C 
BRANCH  16  17
ATOM     17  C   UNL     1       8.650  -0.114   2.707  0.00  0.00    +0.019 C 
BRANCH  17  18
ATOM     18  C   UNL     1       9.001  -1.468   2.117  0.00  0.00    +0.003 C 
BRANCH  18  19
ATOM     19  C   UNL     1       9.353  -1.329   0.653  0.00  0.00    +0.019 C 
BRANCH  19  23
ATOM     20  C   UNL     1      11.273  -3.087   0.491  0.00  0.00    +0.034 C 
ATOM     21  C   UNL     1      11.651  -2.440  -0.847  0.00  0.00    +0.082 C 
ATOM     22  N   UNL     1      10.246  -2.587  -1.284  0.00  0.00    -0.313 NA
ATOM     23  C   UNL     1       9.828  -2.678   0.134  0.00  0.00    +0.055 C 
ATOM     24  H   UNL     1      10.070  -3.451  -1.796  0.00  0.00    +0.122 HD
ENDBRANCH  19  23
ENDBRANCH  18  19
ENDBRANCH  17  18
ENDBRANCH  16  17
ENDBRANCH  14  16
ENDBRANCH   8  14
ENDBRANCH   5  13
ENDBRANCH   3   6
ENDBRANCH   1   4
BRANCH   1  25
ATOM     25  N   UNL     1       4.510  -5.929   4.280  0.00  0.00    -0.217 NA
ATOM     26  C   UNL     1       3.663  -5.313   3.557  0.00  0.00    +0.234 C 
BRANCH  26  27
ATOM     27  N   UNL     1       2.889  -6.022   2.608  0.00  0.00    -0.193 NA
ATOM     28  C   UNL     1       1.871  -5.568   2.256  0.00  0.00    -0.013 C 
ATOM     29  C   UNL     1       0.725  -5.026   1.893  0.00  0.00    +0.063 C 
BRANCH  29  30
ATOM     30  C   UNL     1       0.376  -4.651   0.480  0.00  0.00    +0.138 C 
BRANCH  30  31
ATOM     31  N   UNL     1       1.266  -3.622  -0.055  0.00  0.00    -0.345 N 
ATOM     32  H   UNL     1       0.908  -3.260  -0.932  0.00  0.00    +0.146 HD
BRANCH  31  33
ATOM     33  C   UNL     1       1.757  -2.601   0.710  0.00  0.00    +0.067 C 
ATOM     34  C   UNL     1       2.800  -2.668   1.546  0.00  0.00    +0.014 C 
BRANCH  34  35
ATOM     35  C   UNL     1       3.168  -1.632   2.455  0.00  0.00    -0.003 C 
ATOM     36  C   UNL     1       2.547  -0.448   2.443  0.00  0.00    -0.027 C 
BRANCH  36  37
ATOM     37  C   UNL     1       2.941   0.660   3.307  0.00  0.00    +0.027 C 
BRANCH  37  38
ATOM     38  C   UNL     1       1.886   1.049   4.368  0.00  0.00    +0.006 C 
BRANCH  38  39
ATOM     39  C   UNL     1       1.527   0.138   5.576  0.00  0.00    +0.019 C 
BRANCH  39  40
ATOM     40  C   UNL     1       2.587  -0.320   6.603  0.00  0.00    +0.101 C 
BRANCH  40  41
ATOM     41  N   UNL     1       2.010  -1.129   7.653  0.00  0.00    -0.350 N 
ATOM     42  H   UNL     1       1.785  -0.665   8.528  0.00  0.00    +0.146 HD
BRANCH  41  43
ATOM     43  C   UNL     1       1.727  -2.457   7.563  0.00  0.00    +0.067 C 
ATOM     44  C   UNL     1       1.873  -3.239   6.493  0.00  0.00    +0.014 C 
BRANCH  44  45
ATOM     45  C   UNL     1       1.536  -4.634   6.522  0.00  0.00    -0.003 C 
ATOM     46  C   UNL     1       1.302  -5.277   5.379  0.00  0.00    -0.030 C 
ATOM     47  C   UNL     1       1.180  -6.752   5.211  0.00  0.00    +0.035 C 
ENDBRANCH  44  45
ENDBRANCH  41  43
ENDBRANCH  40  41
ENDBRANCH  39  40
ENDBRANCH  38  39
ENDBRANCH  37  38
ENDBRANCH  36  37
ENDBRANCH  34  35
ENDBRANCH  31  33
ENDBRANCH  30  31
ENDBRANCH  29  30
ENDBRANCH  26  27
ENDBRANCH   1  25
TORSDOF 22
