REMARK  Name = 
REMARK  4 active torsions:
REMARK  status: ('A' for Active; 'I' for Inactive)
REMARK    1  A    between atoms: C_1  and  C_2
REMARK    2  A    between atoms: C_15  and  C_16
REMARK    3  A    between atoms: C_16  and  C_17
REMARK    4  A    between atoms: C_25  and  C_26
REMARK                            x       y       z     vdW  Elec       q    Type
REMARK                         _______ _______ _______ _____ _____    ______ ____
ROOT
ATOM      1  C   UNL     1      -7.002  -2.353  -9.242  0.00  0.00    +0.044 C 
ATOM      2  C   UNL     1      -7.021  -0.961  -8.645  0.00  0.00    -0.041 A 
ATOM      3  C   UNL     1      -5.761  -0.415  -8.422  0.00  0.00    +0.006 A 
ATOM      4  C   UNL     1      -5.443  -0.104  -7.098  0.00  0.00    +0.028 A 
ATOM      5  C   UNL     1      -6.420  -0.153  -6.100  0.00  0.00    +0.065 A 
ATOM      6  C   UNL     1      -7.701   0.086  -6.585  0.00  0.00    +0.038 A 
ATOM      7  C   UNL     1      -8.048  -0.479  -7.830  0.00  0.00    +0.005 A 
ATOM      8  C   UNL     1      -9.497  -0.832  -8.006  0.00  0.00    +0.062 C 
ATOM      9  N   UNL     1     -10.357  -0.039  -8.554  0.00  0.00    -0.299 NA
ATOM     10  C   UNL     1      -9.885  -2.146  -7.370  0.00  0.00    +0.027 C 
ATOM     11  C   UNL     1      -9.997  -1.978  -6.034  0.00  0.00    +0.002 C 
ATOM     12  C   UNL     1      -8.850  -2.424  -5.226  0.00  0.00    +0.002 C 
ATOM     13  C   UNL     1      -8.330  -1.617  -4.276  0.00  0.00    +0.023 C 
ATOM     14  N   UNL     1      -6.048  -0.810  -4.855  0.00  0.00    -0.252 NA
ATOM     15  C   UNL     1      -6.826  -1.585  -4.127  0.00  0.00    +0.043 C 
ATOM     16  H   UNL     1      -9.897   0.822  -8.879  0.00  0.00    +0.187 HD
ENDROOT
BRANCH  15  17
ATOM     17  C   UNL     1      -6.192  -2.769  -3.250  0.00  0.00    +0.067 C 
BRANCH  17  18
ATOM     18  C   UNL     1      -5.871  -2.936  -1.738  0.00  0.00    +0.066 C 
ATOM     19  C   UNL     1      -5.058  -2.106  -0.739  0.00  0.00    +0.237 C 
ATOM     20  O   UNL     1      -5.069  -2.928   0.526  0.00  0.00    -0.491 OA
ATOM     21  C   UNL     1      -5.111  -4.226   0.005  0.00  0.00    +0.128 C 
ATOM     22  C   UNL     1      -5.250  -4.241  -1.326  0.00  0.00    +0.008 C 
ATOM     23  C   UNL     1      -4.143  -5.171  -1.711  0.00  0.00    -0.025 C 
ATOM     24  C   UNL     1      -3.300  -5.075  -2.735  0.00  0.00    +0.017 C 
ATOM     25  C   UNL     1      -3.860  -6.011  -0.555  0.00  0.00    +0.014 C 
ATOM     26  C   UNL     1      -4.376  -5.376   0.525  0.00  0.00    -0.008 C 
ATOM     27  C   UNL     1      -4.435  -5.922   1.903  0.00  0.00    +0.047 C 
ENDBRANCH  17  18
ENDBRANCH  15  17
TORSDOF 2
