REMARK  Name = 
REMARK  7 active torsions:
REMARK  status: ('A' for Active; 'I' for Inactive)
REMARK    1  A    between atoms: C_7  and  C_8
REMARK    2  A    between atoms: N_10  and  N_11
REMARK    3  A    between atoms: N_11  and  C_12
REMARK    4  A    between atoms: C_18  and  N_19
REMARK    5  A    between atoms: C_22  and  C_23
REMARK    6  A    between atoms: C_25  and  C_26
REMARK    7  A    between atoms: C_26  and  C_27
REMARK                            x       y       z     vdW  Elec       q    Type
REMARK                         _______ _______ _______ _____ _____    ______ ____
ROOT
ATOM      1  C   UNL     1      -1.354  -9.870   2.150  0.00  0.00    +0.105 C 
ATOM      2  C   UNL     1      -0.815 -11.064   2.492  0.00  0.00    +0.018 C 
ATOM      3  C   UNL     1      -1.412 -12.149   3.596  0.00  0.00    -0.067 C 
ATOM      4  C   UNL     1      -0.152 -11.958   3.872  0.00  0.00    -0.069 C 
ATOM      5  C   UNL     1       1.317 -11.736   4.194  0.00  0.00    +0.250 C 
ATOM      6  O   UNL     1       1.535 -10.766   5.221  0.00  0.00    -0.349 OA
ATOM      7  C   UNL     1       2.857 -10.492   5.651  0.00  0.00    +0.189 C 
ATOM      8  C   UNL     1       3.834 -11.604   5.385  0.00  0.00    +0.078 C 
ATOM      9  C   UNL     1       0.802 -11.089   1.737  0.00  0.00    +0.053 C 
ATOM     10  C   UNL     1       2.210 -10.258   2.355  0.00  0.00    +0.013 C 
ATOM     11  C   UNL     1       1.742  -9.016   3.184  0.00  0.00    +0.012 C 
ATOM     12  C   UNL     1       3.471 -11.312   2.748  0.00  0.00    -0.024 C 
ATOM     13  C   UNL     1       4.007 -11.925   3.873  0.00  0.00    -0.067 C 
ENDROOT
BRANCH   7  14
ATOM     14  N   UNL     1       2.823 -10.128   7.064  0.00  0.00    -0.306 NA
ATOM     15  H   UNL     1       2.182 -10.764   7.535  0.00  0.00    +0.121 HD
ATOM     16  H   UNL     1       2.363  -9.219   7.119  0.00  0.00    +0.121 HD
ENDBRANCH   7  14
BRANCH   1  17
ATOM     17  N   UNL     1      -2.441  -9.078   2.487  0.00  0.00    -0.236 N 
ATOM     18  H   UNL     1      -2.714  -8.639   1.598  0.00  0.00    +0.174 HD
BRANCH  17  21
ATOM     19  C   UNL     1      -2.804  -8.466   5.673  0.00  0.00    +0.074 C 
ATOM     20  C   UNL     1      -2.506  -8.186   4.420  0.00  0.00    +0.007 C 
ATOM     21  N   UNL     1      -2.189  -7.998   3.317  0.00  0.00    -0.138 NA
BRANCH  19  28
ATOM     22  C   UNL     1      -1.648  -7.508   9.294  0.00  0.00    +0.012 C 
ATOM     23  C   UNL     1      -2.929  -6.990   9.282  0.00  0.00    -0.035 C 
ATOM     24  C   UNL     1      -3.883  -7.751  10.337  0.00  0.00    +0.063 C 
ATOM     25  C   UNL     1      -3.338  -9.087   9.897  0.00  0.00    -0.014 C 
ATOM     26  C   UNL     1      -2.451  -8.770   8.892  0.00  0.00    -0.021 C 
ATOM     27  C   UNL     1      -2.908  -7.682   7.985  0.00  0.00    -0.014 C 
ATOM     28  C   UNL     1      -3.089  -7.461   6.682  0.00  0.00    +0.018 C 
ENDBRANCH  19  28
ENDBRANCH  17  21
ENDBRANCH   1  17
BRANCH  13  29
ATOM     29  C   UNL     1       4.528 -13.412   3.867  0.00  0.00    +0.064 C 
BRANCH  29  30
ATOM     30  C   UNL     1       4.178 -14.343   2.712  0.00  0.00    +0.217 C 
ATOM     31  F   UNL     1       2.837 -14.314   2.484  0.00  0.00    -0.249 F 
ENDBRANCH  29  30
ENDBRANCH  13  29
TORSDOF 6
