REMARK  Name = 
REMARK  4 active torsions:
REMARK  status: ('A' for Active; 'I' for Inactive)
REMARK    1  A    between atoms: C_1  and  C_2
REMARK    2  A    between atoms: C_2  and  C_3
REMARK    3  A    between atoms: C_5  and  C_6
REMARK    4  A    between atoms: C_6  and  C_7
REMARK                            x       y       z     vdW  Elec       q    Type
REMARK                         _______ _______ _______ _____ _____    ______ ____
ROOT
ATOM      1  C   UNL     1       3.159  -0.187   1.326  0.00  0.00    +0.024 C 
ATOM      2  C   UNL     1       4.429  -0.193   1.609  0.00  0.00    -0.128 C 
ATOM      3  C   UNL     1       5.699  -0.187   1.881  0.00  0.00    +0.031 C 
ENDROOT
BRANCH   1   5
ATOM      4  C   UNL     1       1.736  -1.242  -0.437  0.00  0.00    +0.009 C 
ATOM      5  C   UNL     1       2.599  -0.048  -0.058  0.00  0.00    +0.032 C 
ENDBRANCH   1   5
BRANCH   3   6
ATOM      6  C   UNL     1       6.293   0.422   3.113  0.00  0.00    +0.106 C 
BRANCH   6   7
ATOM      7  C   UNL     1       7.706   0.923   2.887  0.00  0.00    +0.228 C 
ATOM      8  O   UNL     1       8.331   0.840   1.834  0.00  0.00    -0.301 OA
ENDBRANCH   6   7
ENDBRANCH   3   6
TORSDOF 3
