REMARK  Name = 
REMARK  0 active torsions:
REMARK  status: ('A' for Active; 'I' for Inactive)
REMARK                            x       y       z     vdW  Elec       q    Type
REMARK                         _______ _______ _______ _____ _____    ______ ____
ROOT
ATOM      1  C   UNL     1       6.770   2.442  -0.382  0.00  0.00    +0.074 C 
ATOM      2  C   UNL     1       6.216   2.713  -1.769  0.00  0.00    -0.014 C 
ATOM      3  C   UNL     1       4.879   2.637  -1.612  0.00  0.00    +0.005 C 
ATOM      4  C   UNL     1       4.682   2.237  -0.185  0.00  0.00    -0.021 C 
ATOM      5  C   UNL     1       5.189   0.845   0.074  0.00  0.00    +0.014 C 
ATOM      6  C   UNL     1       6.541   0.978  -0.016  0.00  0.00    -0.018 C 
ATOM      7  C   UNL     1       5.620   2.994   0.469  0.00  0.00    -0.028 C 
ATOM      8  C   UNL     1       5.873   3.008   1.912  0.00  0.00    +0.025 C 
ATOM      9  C   UNL     1       6.610   2.151   2.648  0.00  0.00    +0.111 C 
ATOM     10  N   UNL     1       7.311   1.004   2.328  0.00  0.00    -0.263 NA
ATOM     11  C   UNL     1       7.261   0.457   1.154  0.00  0.00    +0.115 C 
ENDROOT
TORSDOF 0
