REMARK  Name = 
REMARK  2 active torsions:
REMARK  status: ('A' for Active; 'I' for Inactive)
REMARK    1  A    between atoms: C_4  and  C_7
REMARK    2  A    between atoms: C_8  and  C_9
REMARK                            x       y       z     vdW  Elec       q    Type
REMARK                         _______ _______ _______ _____ _____    ______ ____
ROOT
ATOM      1  C   UNL     1      -0.849  -1.120   0.341  0.00  0.00    +0.024 C 
ATOM      2  C   UNL     1      -1.462   0.102  -0.315  0.00  0.00    +0.008 C 
ATOM      3  C   UNL     1      -0.665   1.333   0.076  0.00  0.00    +0.055 C 
ATOM      4  C   UNL     1       0.836   1.091   0.105  0.00  0.00    +0.036 C 
ATOM      5  N   UNL     1       1.388  -0.072   0.033  0.00  0.00    -0.288 NA
ATOM      6  C   UNL     1       0.579  -1.275  -0.148  0.00  0.00    +0.142 C 
ENDROOT
BRANCH   4   7
ATOM      7  C   UNL     1       1.685   2.307   0.279  0.00  0.00    +0.026 C 
ATOM      8  C   UNL     1       3.020   2.202   0.320  0.00  0.00    +0.044 C 
BRANCH   8   9
ATOM      9  C   UNL     1       3.853   3.408   0.498  0.00  0.00    +0.251 C 
ATOM     10  O   UNL     1       3.391   4.536   0.610  0.00  0.00    -0.296 OA
ENDBRANCH   8   9
ENDBRANCH   4   7
TORSDOF 2
