REMARK  Name = 
REMARK  9 active torsions:
REMARK  status: ('A' for Active; 'I' for Inactive)
REMARK    1  A    between atoms: C_3  and  C_4
REMARK    2  A    between atoms: C_6  and  C_7
REMARK    3  A    between atoms: C_7  and  C_8
REMARK    4  A    between atoms: C_14  and  C_15
REMARK    5  A    between atoms: C_15  and  C_16
REMARK    6  A    between atoms: C_15  and  C_17
REMARK    7  A    between atoms: C_17  and  C_18
REMARK    8  A    between atoms: C_18  and  C_19
REMARK    9  A    between atoms: C_20  and  C_21
REMARK                            x       y       z     vdW  Elec       q    Type
REMARK                         _______ _______ _______ _____ _____    ______ ____
ROOT
ATOM      1  C   UNL     1       1.245  -0.968  -1.515  0.00  0.00    +0.078 C 
ATOM      2  C   UNL     1       1.008  -1.335  -2.999  0.00  0.00    -0.014 C 
ATOM      3  C   UNL     1       0.804  -0.615  -4.137  0.00  0.00    -0.004 C 
ATOM      4  C   UNL     1       0.915   0.891  -4.420  0.00  0.00    +0.051 C 
ATOM      5  C   UNL     1       2.404   1.230  -4.666  0.00  0.00    -0.046 C 
ATOM      6  C   UNL     1       2.888   1.550  -5.880  0.00  0.00    +0.013 C 
ATOM      7  C   UNL     1       3.336   0.846  -3.624  0.00  0.00    +0.023 C 
ATOM      8  C   UNL     1       3.026   1.069  -2.352  0.00  0.00    +0.111 C 
ATOM      9  N   UNL     1       3.473   0.327  -1.317  0.00  0.00    -0.264 NA
ATOM     10  C   UNL     1       2.626  -0.553  -0.860  0.00  0.00    +0.025 C 
ENDROOT
BRANCH   3  11
ATOM     11  C   UNL     1       0.460  -1.398  -5.400  0.00  0.00    +0.254 C 
ATOM     12  O   UNL     1       0.237  -0.874  -6.489  0.00  0.00    -0.296 OA
ENDBRANCH   3  11
BRANCH   4  13
ATOM     13  C   UNL     1       0.036   1.699  -3.433  0.00  0.00    +0.009 C 
ATOM     14  C   UNL     1       0.118   3.211  -3.551  0.00  0.00    +0.005 C 
ENDBRANCH   4  13
BRANCH  10  15
ATOM     15  C   UNL     1       2.953  -0.951   0.611  0.00  0.00    +0.031 C 
ATOM     16  C   UNL     1       2.307   0.080   1.551  0.00  0.00    +0.014 C 
BRANCH  15  17
ATOM     17  C   UNL     1       2.632  -2.361   1.098  0.00  0.00    +0.013 C 
BRANCH  17  18
ATOM     18  C   UNL     1       3.521  -3.423   0.453  0.00  0.00    +0.027 C 
BRANCH  18  19
ATOM     19  C   UNL     1       3.240  -4.764   1.069  0.00  0.00    -0.031 C 
ATOM     20  C   UNL     1       2.726  -5.806   0.395  0.00  0.00    -0.034 C 
ATOM     21  C   UNL     1       2.429  -7.130   1.019  0.00  0.00    +0.035 C 
ENDBRANCH  18  19
ENDBRANCH  17  18
ENDBRANCH  15  17
ENDBRANCH  10  15
TORSDOF 6
