REMARK  Name = 
REMARK  1 active torsions:
REMARK  status: ('A' for Active; 'I' for Inactive)
REMARK    1  A    between atoms: C_1  and  C_2
REMARK                            x       y       z     vdW  Elec       q    Type
REMARK                         _______ _______ _______ _____ _____    ______ ____
ROOT
ATOM      1  C   UNL     1       0.975   0.410  -0.409  0.00  0.00    +0.037 C 
ATOM      2  C   UNL     1       2.456   0.248  -0.479  0.00  0.00    -0.005 C 
ATOM      3  C   UNL     1       3.120  -0.635  -1.239  0.00  0.00    +0.048 C 
ATOM      4  C   UNL     1       2.496  -1.610  -2.169  0.00  0.00    +0.036 C 
ATOM      5  C   UNL     1       3.288  -2.680  -2.441  0.00  0.00    +0.019 C 
ATOM      6  C   UNL     1       4.595  -2.081  -2.922  0.00  0.00    +0.140 C 
ATOM      7  N   UNL     1       5.237  -1.244  -2.154  0.00  0.00    -0.187 NA
ATOM      8  N   UNL     1       4.476  -1.004  -0.973  0.00  0.00    -0.219 N 
ATOM      9  C   UNL     1       4.442  -2.303  -0.176  0.00  0.00    +0.187 C 
ATOM     10  C   UNL     1       3.569  -3.254  -1.041  0.00  0.00    +0.060 C 
ATOM     11  N   UNL     1       3.088  -4.367  -0.589  0.00  0.00    -0.302 NA
ATOM     12  H   UNL     1       2.509  -4.821  -1.304  0.00  0.00    +0.186 HD
ENDROOT
TORSDOF 0
