REMARK  Name = 
REMARK  1 active torsions:
REMARK  status: ('A' for Active; 'I' for Inactive)
REMARK    1  A    between atoms: C_5  and  C_6
REMARK                            x       y       z     vdW  Elec       q    Type
REMARK                         _______ _______ _______ _____ _____    ______ ____
ROOT
ATOM      1  C   UNL     1       0.391   0.371   0.248  0.00  0.00    -0.012 C 
ATOM      2  C   UNL     1       1.360   0.112   1.010  0.00  0.00    -0.123 C 
ATOM      3  C   UNL     1       1.953  -0.898   1.455  0.00  0.00    +0.033 C 
ATOM      4  C   UNL     1       0.628  -1.408   0.224  0.00  0.00    +0.065 C 
ATOM      5  C   UNL     1      -0.702  -0.642   0.053  0.00  0.00    +0.057 C 
ENDROOT
BRANCH   5   6
ATOM      6  C   UNL     1      -1.371  -0.744  -1.248  0.00  0.00    -0.025 C 
ATOM      7  C   UNL     1      -2.291  -1.672  -1.553  0.00  0.00    +0.004 C 
ENDBRANCH   5   6
TORSDOF 1
