REMARK  Name = 
REMARK  2 active torsions:
REMARK  status: ('A' for Active; 'I' for Inactive)
REMARK    1  A    between atoms: C_13  and  C_14
REMARK    2  A    between atoms: C_14  and  C_15
REMARK                            x       y       z     vdW  Elec       q    Type
REMARK                         _______ _______ _______ _____ _____    ______ ____
ROOT
ATOM      1  C   UNL     1      -1.864  -0.596  -0.208  0.00  0.00    -0.004 C 
ATOM      2  C   UNL     1      -0.594  -0.399  -0.595  0.00  0.00    -0.001 C 
ATOM      3  C   UNL     1       0.301  -1.525  -0.659  0.00  0.00    +0.015 C 
ATOM      4  C   UNL     1      -0.197  -2.768  -0.542  0.00  0.00    +0.076 C 
ATOM      5  N   UNL     1      -1.526  -3.070  -0.184  0.00  0.00    -0.300 N 
ATOM      6  C   UNL     1      -2.361  -1.936   0.335  0.00  0.00    +0.106 C 
ATOM      7  C   UNL     1      -2.338  -1.809   1.869  0.00  0.00    +0.074 C 
ATOM      8  C   UNL     1      -2.072  -4.374  -0.347  0.00  0.00    +0.028 C 
ATOM      9  C   UNL     1      -1.950  -5.031  -1.519  0.00  0.00    +0.033 C 
ATOM     10  C   UNL     1      -2.902  -5.024   0.693  0.00  0.00    +0.042 C 
ATOM     11  C   UNL     1      -2.547  -6.053   1.488  0.00  0.00    +0.114 C 
ATOM     12  N   UNL     1      -3.420  -6.719   2.346  0.00  0.00    -0.240 NA
ATOM     13  C   UNL     1      -3.073  -7.078   3.558  0.00  0.00    +0.138 C 
ATOM     14  N   UNL     1      -1.904  -6.782   4.234  0.00  0.00    -0.188 NA
ATOM     15  C   UNL     1      -1.468  -5.704   4.130  0.00  0.00    +0.009 C 
ATOM     16  C   UNL     1      -0.958  -4.530   3.868  0.00  0.00    +0.182 C 
ATOM     17  N   UNL     1      -1.838  -3.543   3.497  0.00  0.00    -0.258 NA
ATOM     18  C   UNL     1      -1.424  -2.801   2.521  0.00  0.00    +0.086 C 
ENDROOT
BRANCH  13  19
ATOM     19  C   UNL     1      -3.958  -8.077   4.327  0.00  0.00    +0.073 C 
ATOM     20  C   UNL     1      -4.464  -7.638   5.697  0.00  0.00    +0.012 C 
ENDBRANCH  13  19
TORSDOF 1
