REMARK  Name = 
REMARK  2 active torsions:
REMARK  status: ('A' for Active; 'I' for Inactive)
REMARK    1  A    between atoms: C_1  and  C_2
REMARK    2  A    between atoms: C_4  and  C_5
REMARK                            x       y       z     vdW  Elec       q    Type
REMARK                         _______ _______ _______ _____ _____    ______ ____
ROOT
ATOM      1  C   UNL     1      -1.208   0.566   0.542  0.00  0.00    +0.036 C 
ATOM      2  C   UNL     1       0.154   0.086   0.216  0.00  0.00    -0.019 C 
ATOM      3  C   UNL     1       1.356   0.428   0.747  0.00  0.00    +0.009 C 
ATOM      4  C   UNL     1       1.477   1.706   1.812  0.00  0.00    +0.068 C 
ATOM      5  C   UNL     1       0.749   3.000   1.433  0.00  0.00    +0.068 C 
ATOM      6  N   UNL     1       2.394   1.957   2.725  0.00  0.00    -0.153 NA
ATOM      7  N   UNL     1       3.522   1.126   2.755  0.00  0.00    -0.145 NA
ATOM      8  C   UNL     1       4.285   1.203   1.674  0.00  0.00    +0.117 C 
ATOM      9  C   UNL     1       4.871  -0.221   1.176  0.00  0.00    +0.095 C 
ATOM     10  C   UNL     1       3.594  -0.890   0.395  0.00  0.00    -0.003 C 
ATOM     11  C   UNL     1       2.591  -0.054  -0.053  0.00  0.00    +0.030 C 
ATOM     12  C   UNL     1       3.351   1.212   0.307  0.00  0.00    -0.059 C 
ATOM     13  C   UNL     1       4.003   2.298   0.616  0.00  0.00    -0.043 C 
ENDROOT
TORSDOF 0
