REMARK  Name = 
REMARK  0 active torsions:
REMARK  status: ('A' for Active; 'I' for Inactive)
REMARK                            x       y       z     vdW  Elec       q    Type
REMARK                         _______ _______ _______ _____ _____    ______ ____
ROOT
ATOM      1  C   UNL     1       3.448   2.187  -0.156  0.00  0.00    +0.067 C 
ATOM      2  C   UNL     1       4.392   3.023  -0.036  0.00  0.00    +0.025 C 
ATOM      3  C   UNL     1       3.640   4.184   0.034  0.00  0.00    -0.000 C 
ATOM      4  C   UNL     1       2.336   3.775   0.061  0.00  0.00    +0.001 C 
ATOM      5  C   UNL     1       1.953   2.018  -0.155  0.00  0.00    +0.143 C 
ATOM      6  N   UNL     1       2.367   0.203   0.360  0.00  0.00    -0.323 N 
ATOM      7  C   UNL     1       3.711  -0.229   0.113  0.00  0.00    +0.182 C 
ATOM      8  N   UNL     1       3.551   0.996  -0.020  0.00  0.00    -0.243 NA
ATOM      9  H   UNL     1       2.073  -0.657  -0.145  0.00  0.00    +0.148 HD
ENDROOT
TORSDOF 0
