REMARK  Name = 
REMARK  8 active torsions:
REMARK  status: ('A' for Active; 'I' for Inactive)
REMARK    1  A    between atoms: C_1  and  N_2
REMARK    2  A    between atoms: C_7  and  C_8
REMARK    3  A    between atoms: C_9  and  C_10
REMARK    4  A    between atoms: C_11  and  C_12
REMARK    5  A    between atoms: C_13  and  C_14
REMARK    6  A    between atoms: C_19  and  C_20
REMARK    7  A    between atoms: C_29  and  C_30
REMARK    8  A    between atoms: C_30  and  C_31
REMARK                            x       y       z     vdW  Elec       q    Type
REMARK                         _______ _______ _______ _____ _____    ______ ____
ROOT
ATOM      1  C   UNL     1      10.754  -3.967   3.845  0.00  0.00    -0.022 C 
ATOM      2  C   UNL     1      11.381  -4.079   5.032  0.00  0.00    -0.018 C 
ATOM      3  C   UNL     1      12.122  -5.298   5.488  0.00  0.00    +0.032 C 
ATOM      4  C   UNL     1      11.876  -6.545   4.642  0.00  0.00    +0.032 C 
ATOM      5  C   UNL     1      11.343  -6.287   3.265  0.00  0.00    -0.018 C 
ATOM      6  C   UNL     1      10.767  -5.123   2.896  0.00  0.00    -0.014 C 
ENDROOT
BRANCH   6   7
ATOM      7  C   UNL     1       9.891  -5.152   1.712  0.00  0.00    -0.010 C 
ATOM      8  C   UNL     1       9.814  -4.083   0.880  0.00  0.00    +0.016 C 
ATOM      9  C   UNL     1       8.400  -3.907   0.580  0.00  0.00    -0.027 C 
ATOM     10  C   UNL     1       7.881  -2.778   0.095  0.00  0.00    +0.017 C 
ATOM     11  C   UNL     1       7.683  -5.053   1.091  0.00  0.00    -0.030 C 
ATOM     12  C   UNL     1       8.594  -5.866   1.664  0.00  0.00    -0.014 C 
ATOM     13  C   UNL     1       8.198  -7.147   2.210  0.00  0.00    +0.004 C 
ATOM     14  C   UNL     1       6.964  -7.628   1.982  0.00  0.00    -0.026 C 
ATOM     15  C   UNL     1       5.941  -6.835   1.204  0.00  0.00    +0.035 C 
ATOM     16  C   UNL     1       6.206  -5.303   1.196  0.00  0.00    +0.024 C 
BRANCH  16  17
ATOM     17  C   UNL     1       5.720  -4.615   2.500  0.00  0.00    +0.005 C 
ATOM     18  C   UNL     1       4.219  -4.685   2.730  0.00  0.00    +0.004 C 
ENDBRANCH  16  17
ENDBRANCH   6   7
BRANCH   1  20
ATOM     19  C   UNL     1      10.813  -1.519   3.492  0.00  0.00    +0.001 C 
ATOM     20  C   UNL     1      10.120  -2.669   3.560  0.00  0.00    +0.008 C 
BRANCH  19  22
ATOM     21  C   UNL     1      11.046   0.883   3.213  0.00  0.00    +0.001 C 
ATOM     22  C   UNL     1      10.256  -0.205   3.222  0.00  0.00    +0.000 C 
BRANCH  21  31
ATOM     23  C   UNL     1      13.968   6.575   1.828  0.00  0.00    +0.134 C 
ATOM     24  N   UNL     1      13.069   5.561   2.389  0.00  0.00    -0.313 N 
ATOM     25  C   UNL     1      13.594   4.374   2.894  0.00  0.00    +0.075 C 
ATOM     26  C   UNL     1      12.855   3.294   3.197  0.00  0.00    +0.023 C 
ATOM     27  C   UNL     1      11.414   3.342   2.931  0.00  0.00    -0.022 C 
ATOM     28  C   UNL     1      10.838   4.664   2.618  0.00  0.00    +0.026 C 
ATOM     29  C   UNL     1      11.658   5.710   2.348  0.00  0.00    +0.008 C 
ATOM     30  C   UNL     1      11.084   7.068   2.041  0.00  0.00    +0.061 C 
ATOM     31  C   UNL     1      10.616   2.250   2.968  0.00  0.00    +0.008 C 
ENDBRANCH  21  31
ENDBRANCH  19  22
ENDBRANCH   1  20
TORSDOF 5
