REMARK  Name = 
REMARK  4 active torsions:
REMARK  status: ('A' for Active; 'I' for Inactive)
REMARK    1  A    between atoms: C_5  and  C_6
REMARK    2  A    between atoms: C_14  and  C_15
REMARK    3  A    between atoms: C_14  and  O_16
REMARK    4  A    between atoms: O_16  and  C_17
REMARK                            x       y       z     vdW  Elec       q    Type
REMARK                         _______ _______ _______ _____ _____    ______ ____
ROOT
ATOM      1  C   UNL     1      -2.064   0.840   0.258  0.00  0.00    +0.079 C 
ATOM      2  C   UNL     1      -2.014  -0.400  -0.666  0.00  0.00    +0.233 C 
ATOM      3  O   UNL     1      -1.460  -1.560   0.001  0.00  0.00    -0.499 OA
ATOM      4  C   UNL     1      -0.107  -1.620  -0.207  0.00  0.00    +0.191 C 
ATOM      5  C   UNL     1       0.797  -1.329   0.749  0.00  0.00    -0.009 C 
ATOM      6  C   UNL     1       0.425  -1.050   2.178  0.00  0.00    +0.047 C 
ATOM      7  C   UNL     1       2.153  -0.918   0.329  0.00  0.00    -0.020 C 
ATOM      8  C   UNL     1       3.121  -1.848   0.309  0.00  0.00    +0.018 C 
ATOM      9  C   UNL     1       2.364   0.476  -0.163  0.00  0.00    -0.025 C 
ATOM     10  C   UNL     1       3.543   1.126  -0.034  0.00  0.00    +0.017 C 
ATOM     11  C   UNL     1       1.208   1.233  -0.655  0.00  0.00    +0.008 C 
ATOM     12  C   UNL     1       0.302   1.684   0.236  0.00  0.00    +0.007 C 
ATOM     13  C   UNL     1      -1.086   1.989  -0.042  0.00  0.00    -0.007 C 
ATOM     14  C   UNL     1      -1.472   3.244  -0.334  0.00  0.00    +0.097 C 
ATOM     15  C   UNL     1      -0.500   4.388  -0.517  0.00  0.00    +0.086 C 
ENDROOT
BRANCH  14  16
ATOM     16  O   UNL     1      -2.833   3.508  -0.455  0.00  0.00    -0.499 OA
ATOM     17  C   UNL     1      -3.265   4.814  -0.089  0.00  0.00    +0.276 C 
ENDBRANCH  14  16
TORSDOF 1
