REMARK  Name = 
REMARK  5 active torsions:
REMARK  status: ('A' for Active; 'I' for Inactive)
REMARK    1  A    between atoms: C_8  and  C_11
REMARK    2  A    between atoms: C_11  and  C_12
REMARK    3  A    between atoms: C_11  and  C_18
REMARK    4  A    between atoms: C_27  and  C_28
REMARK    5  A    between atoms: C_28  and  C_29
REMARK                            x       y       z     vdW  Elec       q    Type
REMARK                         _______ _______ _______ _____ _____    ______ ____
ROOT
ATOM      1  C   UNL     1      -3.049  -5.714  -2.587  0.00  0.00    +0.049 C 
ENDROOT
BRANCH   1   9
ATOM      2  C   UNL     1      -1.308 -10.558  -2.076  0.00  0.00    +0.050 C 
ATOM      3  C   UNL     1      -0.606 -11.282  -3.256  0.00  0.00    +0.145 C 
ATOM      4  N   UNL     1      -0.822 -10.541  -4.514  0.00  0.00    -0.296 NA
ATOM      5  C   UNL     1       0.094  -9.657  -4.722  0.00  0.00    +0.077 C 
ATOM      6  C   UNL     1      -0.078  -8.585  -5.757  0.00  0.00    +0.047 C 
ATOM      7  C   UNL     1      -0.354  -7.234  -5.076  0.00  0.00    +0.006 C 
ATOM      8  C   UNL     1      -1.822  -6.982  -4.622  0.00  0.00    +0.009 C 
ATOM      9  C   UNL     1      -1.996  -6.832  -3.069  0.00  0.00    +0.023 C 
ATOM     10  C   UNL     1      -2.180  -8.245  -2.530  0.00  0.00    -0.027 C 
ATOM     11  C   UNL     1      -1.176  -9.044  -2.117  0.00  0.00    -0.029 C 
ENDBRANCH   1   9
BRANCH   1  12
ATOM     12  C   UNL     1      -4.549  -5.843  -2.935  0.00  0.00    -0.014 C 
ATOM     13  C   UNL     1      -5.534  -6.386  -2.166  0.00  0.00    -0.047 C 
ATOM     14  C   UNL     1      -6.798  -5.599  -1.937  0.00  0.00    +0.004 C 
ATOM     15  C   UNL     1      -7.832  -5.776  -1.078  0.00  0.00    +0.004 C 
ATOM     16  C   UNL     1      -8.015  -6.728   0.038  0.00  0.00    -0.048 C 
ATOM     17  C   UNL     1      -7.590  -6.351   1.258  0.00  0.00    +0.013 C 
ATOM     18  C   UNL     1      -5.899  -7.823  -2.589  0.00  0.00    +0.061 C 
ATOM     19  C   UNL     1      -6.432  -8.593  -1.421  0.00  0.00    -0.026 C 
ATOM     20  C   UNL     1      -7.767  -8.755  -1.382  0.00  0.00    -0.023 C 
ATOM     21  C   UNL     1      -8.521  -8.175  -0.203  0.00  0.00    +0.041 C 
BRANCH  21  22
ATOM     22  C   UNL     1     -10.033  -8.352  -0.483  0.00  0.00    +0.009 C 
ATOM     23  C   UNL     1     -10.971  -7.976   0.652  0.00  0.00    +0.005 C 
ENDBRANCH  21  22
ENDBRANCH   1  12
BRANCH   1  24
ATOM     24  C   UNL     1      -2.537  -4.352  -3.074  0.00  0.00    -0.033 C 
ATOM     25  C   UNL     1      -2.836  -3.709  -4.232  0.00  0.00    +0.005 C 
ATOM     26  C   UNL     1      -2.028  -2.513  -4.375  0.00  0.00    +0.001 C 
ATOM     27  C   UNL     1      -1.243  -2.379  -3.295  0.00  0.00    +0.007 C 
ATOM     28  C   UNL     1      -1.538  -3.500  -2.416  0.00  0.00    -0.028 C 
ATOM     29  C   UNL     1      -0.984  -3.663  -1.214  0.00  0.00    +0.017 C 
ENDBRANCH   1  24
TORSDOF 4
