REMARK  Name = 
REMARK  14 active torsions:
REMARK  status: ('A' for Active; 'I' for Inactive)
REMARK    1  A    between atoms: C_2  and  C_3
REMARK    2  A    between atoms: C_3  and  C_4
REMARK    3  A    between atoms: C_3  and  C_14
REMARK    4  A    between atoms: C_4  and  C_6
REMARK    5  A    between atoms: C_6  and  C_7
REMARK    6  A    between atoms: C_7  and  N_8
REMARK    7  A    between atoms: N_8  and  C_9
REMARK    8  A    between atoms: C_10  and  C_11
REMARK    9  A    between atoms: C_12  and  C_13
REMARK   10  A    between atoms: C_14  and  C_15
REMARK   11  A    between atoms: C_15  and  C_16
REMARK   12  A    between atoms: C_15  and  N_19
REMARK   13  A    between atoms: C_16  and  C_17
REMARK   14  A    between atoms: C_17  and  C_18
REMARK                            x       y       z     vdW  Elec       q    Type
REMARK                         _______ _______ _______ _____ _____    ______ ____
ROOT
ATOM      1  C   UNL     1       2.634  -0.085   2.204  0.00  0.00    -0.068 C 
ATOM      2  C   UNL     1       3.351  -1.115   2.702  0.00  0.00    +0.008 C 
ENDROOT
BRANCH   1   3
ATOM      3  C   UNL     1       3.032   0.645   0.896  0.00  0.00    +0.038 C 
BRANCH   3   5
ATOM      4  C   UNL     1       1.505   0.492  -1.111  0.00  0.00    +0.004 C 
ATOM      5  C   UNL     1       2.375  -0.072  -0.264  0.00  0.00    -0.027 C 
ENDBRANCH   3   5
BRANCH   3   6
ATOM      6  C   UNL     1       4.569   0.768   0.701  0.00  0.00    +0.038 C 
BRANCH   6   7
ATOM      7  C   UNL     1       5.107   1.541  -0.533  0.00  0.00    +0.105 C 
BRANCH   7   8
ATOM      8  N   UNL     1       6.580   1.503  -0.407  0.00  0.00    -0.296 NA
ATOM      9  C   UNL     1       7.214   0.951  -1.376  0.00  0.00    +0.134 C 
ENDBRANCH   7   8
BRANCH   7  10
ATOM     10  C   UNL     1       4.697   3.027  -0.601  0.00  0.00    +0.026 C 
BRANCH  10  11
ATOM     11  C   UNL     1       5.245   3.738  -1.854  0.00  0.00    -0.001 C 
ATOM     12  C   UNL     1       4.810   5.196  -1.918  0.00  0.00    +0.004 C 
ENDBRANCH  10  11
ENDBRANCH   7  10
ENDBRANCH   6   7
ENDBRANCH   3   6
ENDBRANCH   1   3
BRANCH   1  13
ATOM     13  C   UNL     1       1.353   0.424   2.879  0.00  0.00    +0.049 C 
BRANCH  13  14
ATOM     14  C   UNL     1       0.931  -0.318   4.159  0.00  0.00    +0.105 C 
BRANCH  14  15
ATOM     15  N   UNL     1      -0.273   0.222   4.775  0.00  0.00    -0.349 N 
ATOM     16  H   UNL     1      -0.817   0.914   4.268  0.00  0.00    +0.146 HD
BRANCH  15  17
ATOM     17  C   UNL     1      -0.822  -0.291   5.926  0.00  0.00    +0.067 C 
ATOM     18  C   UNL     1      -1.928   0.103   6.560  0.00  0.00    +0.014 C 
BRANCH  18  19
ATOM     19  C   UNL     1      -2.396  -0.542   7.769  0.00  0.00    -0.003 C 
ATOM     20  C   UNL     1      -3.492  -0.152   8.432  0.00  0.00    -0.030 C 
ATOM     21  C   UNL     1      -3.997  -0.819   9.672  0.00  0.00    +0.035 C 
ENDBRANCH  18  19
ENDBRANCH  15  17
ENDBRANCH  14  15
ENDBRANCH  13  14
ENDBRANCH   1  13
TORSDOF 12
