REMARK  Name = 
REMARK  2 active torsions:
REMARK  status: ('A' for Active; 'I' for Inactive)
REMARK    1  A    between atoms: C_6  and  C_7
REMARK    2  A    between atoms: C_6  and  C_8
REMARK                            x       y       z     vdW  Elec       q    Type
REMARK                         _______ _______ _______ _____ _____    ______ ____
ROOT
ATOM      1  C   UNL     1       3.716   1.604   1.332  0.00  0.00    -0.003 C 
ATOM      2  C   UNL     1       2.979   2.538   1.992  0.00  0.00    -0.021 A 
ATOM      3  C   UNL     1       3.430   2.786   3.389  0.00  0.00    +0.008 A 
ATOM      4  C   UNL     1       2.898   3.760   4.142  0.00  0.00    +0.001 A 
ATOM      5  C   UNL     1       1.861   4.632   3.636  0.00  0.00    +0.001 A 
ATOM      6  C   UNL     1       1.340   4.448   2.416  0.00  0.00    +0.008 A 
ATOM      7  C   UNL     1       1.802   3.353   1.542  0.00  0.00    -0.025 A 
ATOM      8  C   UNL     1       1.083   3.215   0.418  0.00  0.00    +0.017 C 
ENDROOT
BRANCH   1  14
ATOM      9  C   UNL     1       1.169  -0.230  -0.063  0.00  0.00    +0.009 C 
ATOM     10  C   UNL     1       2.501  -0.087  -0.087  0.00  0.00    -0.059 C 
ATOM     11  C   UNL     1       3.563  -1.189  -0.043  0.00  0.00    +0.062 C 
ATOM     12  C   UNL     1       4.543  -0.097  -0.414  0.00  0.00    -0.059 C 
ATOM     13  C   UNL     1       5.751  -0.161  -0.994  0.00  0.00    +0.009 C 
ATOM     14  C   UNL     1       3.547   1.073  -0.058  0.00  0.00    +0.029 C 
ATOM     15  C   UNL     1       3.654   2.136  -1.157  0.00  0.00    +0.025 C 
ENDBRANCH   1  14
TORSDOF 1
