REMARK  Name = 
REMARK  4 active torsions:
REMARK  status: ('A' for Active; 'I' for Inactive)
REMARK    1  A    between atoms: C_1  and  C_2
REMARK    2  A    between atoms: C_5  and  C_6
REMARK    3  A    between atoms: C_6  and  C_7
REMARK    4  A    between atoms: C_7  and  N_8
REMARK                            x       y       z     vdW  Elec       q    Type
REMARK                         _______ _______ _______ _____ _____    ______ ____
ROOT
ATOM      1  C   UNL     1       1.469   0.652  -1.145  0.00  0.00    +0.036 C 
ATOM      2  C   UNL     1       2.772   0.083  -0.686  0.00  0.00    -0.022 C 
ATOM      3  C   UNL     1       3.642   0.790   0.031  0.00  0.00    -0.026 C 
ATOM      4  C   UNL     1       4.790  -0.102   0.266  0.00  0.00    +0.012 C 
ATOM      5  C   UNL     1       4.809   1.085   0.745  0.00  0.00    -0.038 C 
ENDROOT
BRANCH   5   6
ATOM      6  C   UNL     1       5.570   2.122   1.427  0.00  0.00    +0.059 C 
BRANCH   6   7
ATOM      7  C   UNL     1       7.083   1.910   1.289  0.00  0.00    +0.157 C 
BRANCH   7   8
ATOM      8  N   UNL     1       7.788   2.956   2.053  0.00  0.00    -0.242 NA
ATOM      9  C   UNL     1       8.960   2.890   2.007  0.00  0.00    -0.026 C 
ATOM     10  C   UNL     1      10.254   2.834   1.966  0.00  0.00    +0.090 C 
ENDBRANCH   7   8
ENDBRANCH   6   7
ENDBRANCH   5   6
TORSDOF 3
