REMARK  Name = 
REMARK  13 active torsions:
REMARK  status: ('A' for Active; 'I' for Inactive)
REMARK    1  A    between atoms: C_1  and  C_2
REMARK    2  A    between atoms: C_2  and  C_3
REMARK    3  A    between atoms: C_3  and  C_4
REMARK    4  A    between atoms: C_4  and  C_5
REMARK    5  A    between atoms: C_5  and  C_6
REMARK    6  A    between atoms: C_5  and  C_14
REMARK    7  A    between atoms: C_6  and  C_8
REMARK    8  A    between atoms: C_9  and  N_10
REMARK    9  A    between atoms: N_10  and  C_11
REMARK   10  A    between atoms: C_12  and  C_13
REMARK   11  A    between atoms: C_17  and  C_18
REMARK   12  A    between atoms: C_19  and  C_20
REMARK   13  A    between atoms: C_21  and  C_22
REMARK                            x       y       z     vdW  Elec       q    Type
REMARK                         _______ _______ _______ _____ _____    ______ ____
ROOT
ATOM      1  C   UNL     1       5.001  -2.140  -1.736  0.00  0.00    +0.067 C 
ENDROOT
BRANCH   1   2
ATOM      2  C   UNL     1       6.551  -2.270  -1.817  0.00  0.00    +0.029 C 
ATOM      3  C   UNL     1       7.212  -2.744  -0.540  0.00  0.00    -0.026 C 
ATOM      4  C   UNL     1       8.310  -3.474  -0.780  0.00  0.00    -0.027 C 
ATOM      5  C   UNL     1       8.553  -3.657  -2.250  0.00  0.00    +0.016 C 
ATOM      6  C   UNL     1       9.678  -2.761  -2.764  0.00  0.00    +0.012 C 
ATOM      7  C   UNL     1       7.166  -3.283  -2.841  0.00  0.00    +0.026 C 
BRANCH   7   8
ATOM      8  C   UNL     1       6.359  -4.554  -3.009  0.00  0.00    -0.022 C 
ATOM      9  C   UNL     1       5.937  -4.998  -4.201  0.00  0.00    +0.007 C 
BRANCH   9  10
ATOM     10  C   UNL     1       5.064  -6.131  -4.319  0.00  0.00    +0.095 C 
ATOM     11  C   UNL     1       4.631  -6.553  -5.479  0.00  0.00    +0.124 C 
ATOM     12  O   UNL     1       4.235  -6.929  -6.505  0.00  0.00    -0.232 OA
ENDBRANCH   9  10
ENDBRANCH   7   8
ENDBRANCH   1   2
BRANCH   1  13
ATOM     13  C   UNL     1       4.381  -1.656  -3.051  0.00  0.00    +0.161 C 
ATOM     14  O   UNL     1       4.697  -0.581  -3.556  0.00  0.00    -0.292 OA
BRANCH  13  15
ATOM     15  C   UNL     1       3.200  -2.423  -3.567  0.00  0.00    +0.061 C 
ATOM     16  C   UNL     1       2.471  -1.909  -4.565  0.00  0.00    +0.075 C 
BRANCH  16  17
ATOM     17  N   UNL     1       1.228  -2.325  -4.973  0.00  0.00    -0.327 N 
ATOM     18  H   UNL     1       0.740  -2.972  -4.360  0.00  0.00    +0.151 HD
BRANCH  17  19
ATOM     19  C   UNL     1       0.490  -1.820  -6.008  0.00  0.00    +0.067 C 
ATOM     20  C   UNL     1      -0.732  -2.219  -6.379  0.00  0.00    -0.015 C 
ATOM     21  C   UNL     1      -1.454  -1.662  -7.562  0.00  0.00    +0.036 C 
ENDBRANCH  17  19
ENDBRANCH  16  17
ENDBRANCH  13  15
ENDBRANCH   1  13
BRANCH   1  22
ATOM     22  C   UNL     1       4.566  -1.094  -0.661  0.00  0.00    +0.012 C 
BRANCH  22  23
ATOM     23  C   UNL     1       3.038  -1.030  -0.525  0.00  0.00    +0.000 C 
BRANCH  23  25
ATOM     24  C   UNL     1       0.996  -0.113   0.536  0.00  0.00    +0.004 C 
ATOM     25  C   UNL     1       2.521  -0.046   0.518  0.00  0.00    -0.003 C 
ENDBRANCH  23  25
ENDBRANCH  22  23
ENDBRANCH   1  22
TORSDOF 10
