REMARK  Name = 
REMARK  10 active torsions:
REMARK  status: ('A' for Active; 'I' for Inactive)
REMARK    1  A    between atoms: C_2  and  C_3
REMARK    2  A    between atoms: C_4  and  C_5
REMARK    3  A    between atoms: C_4  and  C_17
REMARK    4  A    between atoms: C_10  and  C_11
REMARK    5  A    between atoms: C_12  and  C_13
REMARK    6  A    between atoms: C_14  and  C_15
REMARK    7  A    between atoms: C_17  and  C_18
REMARK    8  A    between atoms: C_19  and  C_20
REMARK    9  A    between atoms: C_21  and  C_22
REMARK   10  A    between atoms: C_22  and  N_23
REMARK                            x       y       z     vdW  Elec       q    Type
REMARK                         _______ _______ _______ _____ _____    ______ ____
ROOT
ATOM      1  C   UNL     1       3.197   1.205   0.518  0.00  0.00    +0.004 C 
ATOM      2  C   UNL     1       4.546   1.252   0.508  0.00  0.00    -0.036 C 
ENDROOT
BRANCH   2   3
ATOM      3  C   UNL     1       5.372   0.078   0.122  0.00  0.00    -0.014 A 
ATOM      4  C   UNL     1       5.586  -0.119  -1.257  0.00  0.00    +0.009 A 
ATOM      5  C   UNL     1       6.387  -1.159  -1.721  0.00  0.00    +0.001 A 
ATOM      6  C   UNL     1       7.045  -1.975  -0.812  0.00  0.00    +0.001 A 
ATOM      7  C   UNL     1       6.827  -1.804   0.556  0.00  0.00    +0.008 A 
ATOM      8  C   UNL     1       5.919  -0.846   1.050  0.00  0.00    -0.018 A 
BRANCH   8   9
ATOM      9  C   UNL     1       5.534  -0.876   2.491  0.00  0.00    +0.008 C 
ATOM     10  C   UNL     1       5.615  -1.982   3.255  0.00  0.00    +0.001 C 
BRANCH  10  11
ATOM     11  C   UNL     1       5.182  -2.101   4.631  0.00  0.00    +0.003 C 
ATOM     12  C   UNL     1       5.353  -3.242   5.321  0.00  0.00    +0.042 C 
BRANCH  12  13
ATOM     13  C   UNL     1       4.916  -3.379   6.726  0.00  0.00    +0.251 C 
ATOM     14  O   UNL     1       5.069  -4.437   7.335  0.00  0.00    -0.296 OA
ENDBRANCH  12  13
ENDBRANCH  10  11
ENDBRANCH   8   9
ENDBRANCH   2   3
BRANCH   1  16
ATOM     15  C   UNL     1       1.041   0.081   0.165  0.00  0.00    +0.008 C 
ATOM     16  C   UNL     1       2.378   0.084   0.106  0.00  0.00    -0.007 C 
ENDBRANCH   1  16
BRANCH   2  17
ATOM     17  C   UNL     1       5.321   2.485   0.965  0.00  0.00    +0.063 C 
BRANCH  17  18
ATOM     18  C   UNL     1       5.573   3.507  -0.127  0.00  0.00    -0.013 C 
ATOM     19  C   UNL     1       5.133   4.778  -0.099  0.00  0.00    +0.056 C 
BRANCH  19  20
ATOM     20  C   UNL     1       5.437   5.759  -1.220  0.00  0.00    -0.073 C 
ATOM     21  C   UNL     1       5.697   6.600  -2.181  0.00  0.00    -0.082 C 
BRANCH  21  22
ATOM     22  C   UNL     1       6.000   7.581  -3.302  0.00  0.00    +0.168 C 
BRANCH  22  23
ATOM     23  N   UNL     1       5.696   8.931  -2.858  0.00  0.00    -0.320 NA
ATOM     24  H   UNL     1       4.706   8.985  -2.625  0.00  0.00    +0.119 HD
ATOM     25  H   UNL     1       5.849   9.578  -3.627  0.00  0.00    +0.119 HD
ENDBRANCH  22  23
ENDBRANCH  21  22
ENDBRANCH  19  20
ENDBRANCH  17  18
ENDBRANCH   2  17
TORSDOF 10
