REMARK  Name = 
REMARK  7 active torsions:
REMARK  status: ('A' for Active; 'I' for Inactive)
REMARK    1  A    between atoms: C_15  and  N_16
REMARK    2  A    between atoms: C_19  and  C_20
REMARK    3  A    between atoms: C_20  and  N_21
REMARK    4  A    between atoms: C_20  and  C_24
REMARK    5  A    between atoms: N_21  and  C_22
REMARK    6  A    between atoms: C_25  and  C_26
REMARK    7  A    between atoms: C_26  and  C_27
REMARK                            x       y       z     vdW  Elec       q    Type
REMARK                         _______ _______ _______ _____ _____    ______ ____
ROOT
ATOM      1  C   UNL     1       1.459  -1.744  -1.051  0.00  0.00    +0.005 C 
ATOM      2  C   UNL     1       1.457  -2.754  -2.282  0.00  0.00    +0.000 C 
ATOM      3  C   UNL     1       2.463  -3.011  -3.444  0.00  0.00    +0.002 C 
ATOM      4  C   UNL     1       3.957  -3.246  -3.196  0.00  0.00    +0.019 C 
ATOM      5  C   UNL     1       4.796  -1.999  -3.477  0.00  0.00    +0.106 C 
ATOM      6  N   UNL     1       5.551  -1.553  -2.344  0.00  0.00    -0.297 N 
ATOM      7  C   UNL     1       6.037  -0.361  -1.900  0.00  0.00    +0.319 C 
ATOM      8  O   UNL     1       6.843  -0.419  -0.966  0.00  0.00    -0.249 OA
ATOM      9  N   UNL     1       5.631   0.935  -2.361  0.00  0.00    -0.272 N 
ATOM     10  C   UNL     1       6.033   2.035  -1.591  0.00  0.00    +0.096 A 
ATOM     11  C   UNL     1       5.572   3.223  -2.082  0.00  0.00    +0.020 A 
ATOM     12  C   UNL     1       4.866   2.899  -3.243  0.00  0.00    +0.028 A 
ATOM     13  C   UNL     1       4.856   1.515  -3.392  0.00  0.00    +0.052 A 
ATOM     14  C   UNL     1       4.177   0.889  -4.465  0.00  0.00    +0.044 C 
ATOM     15  C   UNL     1       2.869   0.540  -4.446  0.00  0.00    +0.003 C 
ATOM     16  C   UNL     1       1.940   0.383  -3.243  0.00  0.00    +0.050 C 
ATOM     17  C   UNL     1       2.318   0.619  -1.785  0.00  0.00    +0.011 C 
ATOM     18  C   UNL     1       2.485  -0.602  -0.814  0.00  0.00    +0.013 C 
ATOM     19  H   UNL     1       5.998  -2.299  -1.820  0.00  0.00    +0.150 HD
ENDROOT
BRANCH  15  20
ATOM     20  N   UNL     1       2.239   0.180  -5.636  0.00  0.00    -0.361 N 
ATOM     21  H   UNL     1       2.849  -0.108  -6.394  0.00  0.00    +0.142 HD
ATOM     22  H   UNL     1       1.417  -0.409  -5.524  0.00  0.00    +0.142 HD
ENDBRANCH  15  20
BRANCH  18  23
ATOM     23  C   UNL     1       2.623   0.060   0.667  0.00  0.00    +0.096 C 
BRANCH  23  24
ATOM     24  N   UNL     1       1.608   1.109   0.928  0.00  0.00    -0.344 N 
ATOM     25  H   UNL     1       0.660   0.782   1.066  0.00  0.00    +0.146 HD
BRANCH  24  26
ATOM     26  C   UNL     1       1.909   2.324   1.510  0.00  0.00    +0.060 C 
ATOM     27  C   UNL     1       1.061   3.263   1.941  0.00  0.00    +0.024 C 
ENDBRANCH  24  26
ENDBRANCH  23  24
BRANCH  23  28
ATOM     28  C   UNL     1       2.779  -0.645   2.000  0.00  0.00    -0.009 C 
ATOM     29  C   UNL     1       2.848  -1.927   2.364  0.00  0.00    -0.030 C 
BRANCH  29  30
ATOM     30  C   UNL     1       3.075  -2.440   3.774  0.00  0.00    +0.023 C 
ATOM     31  C   UNL     1       3.189  -1.437   4.929  0.00  0.00    +0.008 C 
ENDBRANCH  29  30
ENDBRANCH  23  28
ENDBRANCH  18  23
TORSDOF 6
