REMARK  Name = 
REMARK  1 active torsions:
REMARK  status: ('A' for Active; 'I' for Inactive)
REMARK    1  A    between atoms: C_8  and  C_9
REMARK                            x       y       z     vdW  Elec       q    Type
REMARK                         _______ _______ _______ _____ _____    ______ ____
ROOT
ATOM      1  C   UNL     1       2.031  -0.275  -0.998  0.00  0.00    +0.074 C 
ATOM      2  C   UNL     1       3.273  -0.468  -1.875  0.00  0.00    +0.165 C 
ATOM      3  O   UNL     1       4.041   0.377  -0.970  0.00  0.00    -0.362 OA
ATOM      4  C   UNL     1       3.070   0.069   0.096  0.00  0.00    +0.141 C 
ATOM      5  C   UNL     1       3.511  -1.105   0.986  0.00  0.00    +0.126 C 
ATOM      6  N   UNL     1       3.603  -1.082   2.267  0.00  0.00    -0.237 NA
ATOM      7  C   UNL     1       3.343   0.076   2.943  0.00  0.00    +0.153 C 
ATOM      8  C   UNL     1       3.504   0.081   4.277  0.00  0.00    +0.067 C 
ATOM      9  C   UNL     1       2.793   1.254   1.047  0.00  0.00    +0.126 C 
ATOM     10  N   UNL     1       2.925   1.235   2.336  0.00  0.00    -0.237 NA
ENDROOT
BRANCH   8  11
ATOM     11  C   UNL     1       3.893  -1.163   4.974  0.00  0.00    +0.105 C 
ATOM     12  N   UNL     1       4.132  -1.255   6.244  0.00  0.00    -0.307 NA
ATOM     13  H   UNL     1       4.030  -0.349   6.701  0.00  0.00    +0.186 HD
ENDBRANCH   8  11
TORSDOF 1
