REMARK  Name = 
REMARK  7 active torsions:
REMARK  status: ('A' for Active; 'I' for Inactive)
REMARK    1  A    between atoms: C_2  and  C_3
REMARK    2  A    between atoms: C_3  and  C_4
REMARK    3  A    between atoms: C_5  and  C_6
REMARK    4  A    between atoms: C_9  and  C_13
REMARK    5  A    between atoms: C_11  and  C_12
REMARK    6  A    between atoms: C_13  and  N_14
REMARK    7  A    between atoms: N_14  and  C_15
REMARK                            x       y       z     vdW  Elec       q    Type
REMARK                         _______ _______ _______ _____ _____    ______ ____
ROOT
ATOM      1  N   UNL     1      12.120   1.001   1.881  0.00  0.00    -0.299 NA
ATOM      2  H   UNL     1      11.621   1.876   1.722  0.00  0.00    +0.123 HD
ENDROOT
BRANCH   1   3
ATOM      3  C   UNL     1      13.593   1.303   1.798  0.00  0.00    +0.131 C 
ATOM      4  C   UNL     1      14.559   0.077   1.895  0.00  0.00    -0.002 C 
ATOM      5  C   UNL     1      15.623  -0.297   2.657  0.00  0.00    -0.002 C 
ATOM      6  C   UNL     1      16.283   0.245   3.819  0.00  0.00    +0.000 C 
ATOM      7  C   UNL     1      16.847   0.834   4.901  0.00  0.00    +0.009 C 
ATOM      8  C   UNL     1      16.503   2.195   5.418  0.00  0.00    -0.005 C 
ATOM      9  C   UNL     1      16.720   2.543   6.698  0.00  0.00    +0.019 C 
ATOM     10  C   UNL     1      14.112   2.547   2.551  0.00  0.00    +0.116 A 
ATOM     11  N   UNL     1      13.532   2.869   3.742  0.00  0.00    -0.251 NA
ATOM     12  C   UNL     1      14.405   3.205   4.719  0.00  0.00    +0.139 A 
ATOM     13  C   UNL     1      15.785   3.172   4.511  0.00  0.00    +0.092 A 
ATOM     14  N   UNL     1      16.299   3.243   3.253  0.00  0.00    -0.216 NA
ATOM     15  C   UNL     1      15.433   2.926   2.265  0.00  0.00    +0.237 A 
ATOM     16  F   UNL     1      15.959   2.661   1.057  0.00  0.00    -0.182 F 
ENDBRANCH   1   3
BRANCH   1  17
ATOM     17  C   UNL     1      11.578   0.427   3.127  0.00  0.00    +0.137 C 
BRANCH  17  21
ATOM     18  C   UNL     1       6.872   0.336   4.773  0.00  0.00    +0.009 C 
ATOM     19  C   UNL     1       7.913   0.102   3.955  0.00  0.00    -0.002 C 
ATOM     20  C   UNL     1       9.213   0.722   4.084  0.00  0.00    +0.034 C 
ATOM     21  C   UNL     1      10.040   0.162   3.175  0.00  0.00    +0.056 C 
ATOM     22  N   UNL     1       9.379  -0.786   2.372  0.00  0.00    -0.255 NA
ATOM     23  C   UNL     1       8.127  -0.818   2.800  0.00  0.00    +0.046 C 
ATOM     24  C   UNL     1       7.016  -1.659   2.228  0.00  0.00    +0.066 C 
BRANCH  18  26
ATOM     25  C   UNL     1       4.603   0.046   5.689  0.00  0.00    -0.023 C 
ATOM     26  C   UNL     1       5.557  -0.279   4.799  0.00  0.00    -0.003 C 
BRANCH  25  27
ATOM     27  C   UNL     1       3.270  -0.652   5.748  0.00  0.00    +0.053 C 
BRANCH  27  29
ATOM     28  C   UNL     1       1.128   0.431   6.459  0.00  0.00    +0.004 C 
ATOM     29  C   UNL     1       2.113   0.287   5.562  0.00  0.00    -0.030 C 
ENDBRANCH  27  29
ENDBRANCH  25  27
ENDBRANCH  18  26
ENDBRANCH  17  21
ENDBRANCH   1  17
TORSDOF 6
