REMARK  Name = 
REMARK  8 active torsions:
REMARK  status: ('A' for Active; 'I' for Inactive)
REMARK    1  A    between atoms: C_1  and  C_2
REMARK    2  A    between atoms: C_3  and  C_4
REMARK    3  A    between atoms: C_6  and  C_7
REMARK    4  A    between atoms: C_8  and  C_9
REMARK    5  A    between atoms: C_19  and  C_20
REMARK    6  A    between atoms: C_20  and  C_21
REMARK    7  A    between atoms: C_20  and  C_22
REMARK    8  A    between atoms: C_22  and  N_23
REMARK                            x       y       z     vdW  Elec       q    Type
REMARK                         _______ _______ _______ _____ _____    ______ ____
ROOT
ATOM      1  C   UNL     1       8.074  -3.866   4.247  0.00  0.00    +0.019 C 
ATOM      2  C   UNL     1       9.548  -3.722   4.544  0.00  0.00    +0.019 C 
ATOM      3  C   UNL     1      10.946  -4.231   5.781  0.00  0.00    +0.082 C 
ATOM      4  N   UNL     1      10.002  -2.656   3.744  0.00  0.00    -0.323 N 
ATOM      5  C   UNL     1       9.304  -1.401   3.799  0.00  0.00    +0.072 C 
ATOM      6  C   UNL     1       9.898  -0.348   3.383  0.00  0.00    +0.016 C 
ATOM      7  C   UNL     1      11.161  -0.255   4.087  0.00  0.00    +0.016 C 
ATOM      8  C   UNL     1      12.370  -0.351   3.531  0.00  0.00    +0.071 C 
ATOM      9  N   UNL     1      13.514  -0.348   4.314  0.00  0.00    -0.326 N 
ATOM     10  C   UNL     1      14.244  -1.519   4.313  0.00  0.00    +0.071 C 
ATOM     11  C   UNL     1      13.920  -2.400   5.246  0.00  0.00    +0.015 C 
ATOM     12  C   UNL     1      13.516  -3.704   4.775  0.00  0.00    +0.002 C 
ATOM     13  C   UNL     1      12.842  -4.317   5.778  0.00  0.00    -0.053 C 
ATOM     14  H   UNL     1       9.942  -2.930   2.753  0.00  0.00    +0.151 HD
ATOM     15  H   UNL     1      13.191  -0.184   5.273  0.00  0.00    +0.151 HD
ENDROOT
BRANCH   1  18
ATOM     16  C   UNL     1       4.628  -1.904   1.937  0.00  0.00    +0.035 C 
ATOM     17  C   UNL     1       6.030  -2.231   2.768  0.00  0.00    -0.030 C 
ATOM     18  C   UNL     1       6.552  -3.387   3.434  0.00  0.00    -0.003 C 
ENDBRANCH   1  18
BRANCH   3  19
ATOM     19  C   UNL     1      10.685  -5.582   6.422  0.00  0.00    -0.018 C 
ATOM     20  C   UNL     1      10.907  -5.693   7.748  0.00  0.00    -0.033 C 
ATOM     21  C   UNL     1      11.813  -6.759   8.288  0.00  0.00    +0.035 C 
ENDBRANCH   3  19
BRANCH  13  22
ATOM     22  C   UNL     1      14.250  -4.790   6.971  0.00  0.00    +0.026 C 
ATOM     23  C   UNL     1      15.527  -5.541   6.317  0.00  0.00    +0.013 C 
BRANCH  22  24
ATOM     24  C   UNL     1      15.264  -3.753   8.010  0.00  0.00    +0.085 C 
BRANCH  24  25
ATOM     25  N   UNL     1      16.739  -4.060   8.280  0.00  0.00    -0.329 NA
ATOM     26  H   UNL     1      16.911  -4.920   8.811  0.00  0.00    +0.118 HD
ATOM     27  H   UNL     1      17.208  -3.330   8.839  0.00  0.00    +0.118 HD
ENDBRANCH  24  25
ENDBRANCH  22  24
ENDBRANCH  13  22
TORSDOF 5
