REMARK  Name = 
REMARK  7 active torsions:
REMARK  status: ('A' for Active; 'I' for Inactive)
REMARK    1  A    between atoms: C_6  and  C_7
REMARK    2  A    between atoms: C_17  and  C_18
REMARK    3  A    between atoms: C_18  and  C_19
REMARK    4  A    between atoms: C_20  and  C_21
REMARK    5  A    between atoms: C_22  and  C_23
REMARK    6  A    between atoms: C_24  and  C_25
REMARK    7  A    between atoms: C_25  and  C_26
REMARK                            x       y       z     vdW  Elec       q    Type
REMARK                         _______ _______ _______ _____ _____    ______ ____
ROOT
ATOM      1  C   UNL     1       4.796   4.043  -0.768  0.00  0.00    +0.054 C 
ATOM      2  C   UNL     1       4.427   4.247  -2.233  0.00  0.00    -0.023 C 
ATOM      3  C   UNL     1       3.902   3.390  -3.135  0.00  0.00    -0.004 C 
ATOM      4  C   UNL     1       3.513   2.016  -2.904  0.00  0.00    +0.000 C 
ATOM      5  C   UNL     1       4.297   1.042  -2.392  0.00  0.00    -0.054 C 
ATOM      6  C   UNL     1       5.783   1.141  -2.064  0.00  0.00    +0.068 C 
ATOM      7  C   UNL     1       5.791   1.781  -0.670  0.00  0.00    -0.033 C 
ATOM      8  C   UNL     1       5.994   3.118  -0.576  0.00  0.00    -0.018 C 
ATOM      9  C   UNL     1       3.661  -0.086  -1.610  0.00  0.00    +0.067 C 
ATOM     10  C   UNL     1       3.862   0.173  -0.111  0.00  0.00    -0.032 A 
ATOM     11  C   UNL     1       4.867   1.101   0.302  0.00  0.00    -0.018 A 
ATOM     12  C   UNL     1       5.013   1.393   1.667  0.00  0.00    +0.008 A 
ATOM     13  C   UNL     1       4.178   0.807   2.612  0.00  0.00    +0.001 A 
ATOM     14  C   UNL     1       3.201  -0.106   2.213  0.00  0.00    +0.004 A 
ATOM     15  C   UNL     1       3.041  -0.464   0.859  0.00  0.00    -0.040 A 
ENDROOT
BRANCH   6  16
ATOM     16  C   UNL     1       6.580   1.852  -3.161  0.00  0.00    -0.022 C 
ATOM     17  C   UNL     1       7.179   1.272  -4.210  0.00  0.00    +0.005 C 
ENDBRANCH   6  16
BRANCH  15  18
ATOM     18  C   UNL     1       1.943  -1.435   0.454  0.00  0.00    +0.062 C 
BRANCH  18  19
ATOM     19  C   UNL     1       1.606  -2.503   1.457  0.00  0.00    -0.022 C 
ATOM     20  C   UNL     1       0.387  -2.713   1.972  0.00  0.00    -0.004 C 
BRANCH  20  21
ATOM     21  C   UNL     1       0.135  -3.762   2.930  0.00  0.00    -0.000 C 
ATOM     22  C   UNL     1      -1.064  -4.009   3.474  0.00  0.00    -0.000 C 
BRANCH  22  23
ATOM     23  C   UNL     1      -1.263  -5.071   4.437  0.00  0.00    -0.004 C 
ATOM     24  C   UNL     1      -2.447  -5.327   5.007  0.00  0.00    -0.027 C 
BRANCH  24  25
ATOM     25  C   UNL     1      -2.663  -6.427   6.000  0.00  0.00    +0.024 C 
ATOM     26  C   UNL     1      -3.693  -7.425   5.497  0.00  0.00    +0.008 C 
ENDBRANCH  24  25
ENDBRANCH  22  23
ENDBRANCH  20  21
ENDBRANCH  18  19
ENDBRANCH  15  18
TORSDOF 6
