REMARK  Name = 
REMARK  9 active torsions:
REMARK  status: ('A' for Active; 'I' for Inactive)
REMARK    1  A    between atoms: C_1  and  C_2
REMARK    2  A    between atoms: C_2  and  C_3
REMARK    3  A    between atoms: C_4  and  C_5
REMARK    4  A    between atoms: C_5  and  C_6
REMARK    5  A    between atoms: C_6  and  N_8
REMARK    6  A    between atoms: C_9  and  C_10
REMARK    7  A    between atoms: C_9  and  N_11
REMARK    8  A    between atoms: N_12  and  C_13
REMARK    9  A    between atoms: C_18  and  C_19
REMARK                            x       y       z     vdW  Elec       q    Type
REMARK                         _______ _______ _______ _____ _____    ______ ____
ROOT
ATOM      1  N   UNL     1       6.712   1.283   2.666  0.00  0.00    -0.164 NA
ATOM      2  C   UNL     1       7.164   1.824   3.753  0.00  0.00    +0.141 C 
ATOM      3  C   UNL     1       6.364   2.422   4.897  0.00  0.00    +0.087 C 
ENDROOT
BRANCH   1   4
ATOM      4  C   UNL     1       5.369   1.247   2.391  0.00  0.00    +0.242 C 
ATOM      5  O   UNL     1       4.567   2.133   2.673  0.00  0.00    -0.273 OA
BRANCH   4   6
ATOM      6  C   UNL     1       4.941   0.041   1.557  0.00  0.00    +0.125 C 
BRANCH   6  10
ATOM      7  C   UNL     1       5.431   0.287  -2.319  0.00  0.00    +0.038 C 
ATOM      8  C   UNL     1       5.587  -0.195  -0.901  0.00  0.00    -0.079 C 
ATOM      9  C   UNL     1       6.530  -1.342  -0.671  0.00  0.00    +0.038 C 
ATOM     10  C   UNL     1       4.898   0.398   0.094  0.00  0.00    -0.019 C 
ENDBRANCH   6  10
ENDBRANCH   4   6
ENDBRANCH   1   4
BRANCH   2  11
ATOM     11  N   UNL     1       8.546   1.877   3.858  0.00  0.00    -0.137 NA
ATOM     12  N   UNL     1       8.940   1.771   5.037  0.00  0.00    -0.145 NA
BRANCH  12  13
ATOM     13  C   UNL     1      10.344   1.826   5.191  0.00  0.00    +0.123 A 
ATOM     14  C   UNL     1      11.209   2.446   4.299  0.00  0.00    +0.165 A 
ATOM     15  N   UNL     1      12.548   2.528   4.486  0.00  0.00    -0.155 NA
ATOM     16  N   UNL     1      13.097   1.988   5.601  0.00  0.00    -0.156 NA
ATOM     17  C   UNL     1      12.296   1.383   6.502  0.00  0.00    +0.154 A 
ATOM     18  C   UNL     1      10.926   1.282   6.339  0.00  0.00    +0.073 A 
BRANCH  18  19
ATOM     19  C   UNL     1      10.142   0.640   7.351  0.00  0.00    -0.066 C 
ATOM     20  C   UNL     1       9.481   0.105   8.199  0.00  0.00    +0.009 C 
ENDBRANCH  18  19
ENDBRANCH  12  13
ENDBRANCH   2  11
TORSDOF 6
