REMARK  Name = 
REMARK  5 active torsions:
REMARK  status: ('A' for Active; 'I' for Inactive)
REMARK    1  A    between atoms: C_2  and  C_3
REMARK    2  A    between atoms: C_4  and  N_5
REMARK    3  A    between atoms: N_5  and  C_6
REMARK    4  A    between atoms: N_5  and  C_8
REMARK    5  A    between atoms: C_8  and  N_9
REMARK                            x       y       z     vdW  Elec       q    Type
REMARK                         _______ _______ _______ _____ _____    ______ ____
ROOT
ATOM      1  N   UNL     1       5.201   2.757  -0.389  0.00  0.00    -0.295 N 
ENDROOT
BRANCH   1   3
ATOM      2  C   UNL     1       3.636   1.249   0.760  0.00  0.00    +0.015 C 
ATOM      3  C   UNL     1       4.576   1.526  -0.156  0.00  0.00    +0.076 C 
BRANCH   2   5
ATOM      4  C   UNL     1       2.262  -0.344   1.987  0.00  0.00    +0.008 C 
ATOM      5  C   UNL     1       3.084  -0.068   0.966  0.00  0.00    -0.006 C 
ENDBRANCH   2   5
ENDBRANCH   1   3
BRANCH   1   6
ATOM      6  C   UNL     1       4.450   3.926  -0.496  0.00  0.00    +0.069 C 
ATOM      7  C   UNL     1       4.818   5.194  -0.691  0.00  0.00    +0.025 C 
ENDBRANCH   1   6
BRANCH   1   8
ATOM      8  C   UNL     1       6.681   2.752  -0.527  0.00  0.00    +0.243 C 
BRANCH   8   9
ATOM      9  N   UNL     1       7.460   2.673   0.713  0.00  0.00    -0.193 N 
ATOM     10  N   UNL     1       6.982   1.863   1.770  0.00  0.00    -0.168 NA
ATOM     11  C   UNL     1       6.972   3.100   1.857  0.00  0.00    +0.227 C 
ENDBRANCH   8   9
ENDBRANCH   1   8
TORSDOF 5
