REMARK  Name = 
REMARK  19 active torsions:
REMARK  status: ('A' for Active; 'I' for Inactive)
REMARK    1  A    between atoms: C_1  and  C_2
REMARK    2  A    between atoms: C_3  and  C_4
REMARK    3  A    between atoms: C_4  and  C_5
REMARK    4  A    between atoms: C_4  and  C_11
REMARK    5  A    between atoms: C_6  and  C_7
REMARK    6  A    between atoms: C_11  and  C_12
REMARK    7  A    between atoms: C_11  and  N_24
REMARK    8  A    between atoms: C_13  and  C_14
REMARK    9  A    between atoms: C_14  and  C_15
REMARK   10  A    between atoms: C_15  and  C_16
REMARK   11  A    between atoms: C_17  and  C_18
REMARK   12  A    between atoms: C_19  and  C_20
REMARK   13  A    between atoms: C_21  and  C_22
REMARK   14  A    between atoms: N_24  and  C_25
REMARK   15  A    between atoms: C_26  and  C_27
REMARK   16  A    between atoms: C_26  and  C_28
REMARK   17  A    between atoms: C_28  and  C_29
REMARK   18  A    between atoms: C_29  and  C_30
REMARK   19  A    between atoms: C_30  and  N_31
REMARK                            x       y       z     vdW  Elec       q    Type
REMARK                         _______ _______ _______ _____ _____    ______ ____
ROOT
ATOM      1  C   UNL     1       5.283  -1.307  -2.318  0.00  0.00    +0.158 C 
ENDROOT
BRANCH   1   2
ATOM      2  N   UNL     1       6.741  -1.283  -2.316  0.00  0.00    -0.336 N 
ATOM      3  H   UNL     1       7.155  -0.416  -1.991  0.00  0.00    +0.147 HD
BRANCH   2   4
ATOM      4  C   UNL     1       7.582  -2.346  -2.482  0.00  0.00    +0.067 C 
ATOM      5  C   UNL     1       8.924  -2.328  -2.504  0.00  0.00    -0.059 C 
ATOM      6  C   UNL     1       9.736  -1.064  -2.390  0.00  0.00    +0.040 C 
BRANCH   5   7
ATOM      7  C   UNL     1       9.700  -3.614  -2.708  0.00  0.00    +0.033 C 
BRANCH   7   8
ATOM      8  C   UNL     1      10.650  -3.983  -1.563  0.00  0.00    +0.019 C 
BRANCH   8   9
ATOM      9  C   UNL     1       9.936  -4.175  -0.226  0.00  0.00    +0.078 C 
BRANCH   9  10
ATOM     10  N   UNL     1      10.912  -4.526   0.802  0.00  0.00    -0.330 NA
ATOM     11  H   UNL     1      11.389  -5.388   0.544  0.00  0.00    +0.118 HD
ATOM     12  H   UNL     1      10.428  -4.711   1.678  0.00  0.00    +0.118 HD
ENDBRANCH   9  10
ENDBRANCH   8   9
ENDBRANCH   7   8
ENDBRANCH   5   7
ENDBRANCH   2   4
ENDBRANCH   1   2
BRANCH   1  13
ATOM     13  C   UNL     1       4.797  -0.633  -3.548  0.00  0.00    -0.079 C 
ATOM     14  C   UNL     1       4.382  -0.110  -4.554  0.00  0.00    -0.100 C 
BRANCH  14  15
ATOM     15  C   UNL     1       3.864   0.513  -5.784  0.00  0.00    +0.093 C 
BRANCH  15  16
ATOM     16  C   UNL     1       3.885  -0.470  -6.959  0.00  0.00    +0.040 C 
BRANCH  16  17
ATOM     17  C   UNL     1       3.367   0.151  -8.231  0.00  0.00    -0.026 C 
ATOM     18  C   UNL     1       2.307  -0.314  -8.912  0.00  0.00    -0.004 C 
BRANCH  18  19
ATOM     19  C   UNL     1       1.829   0.284 -10.139  0.00  0.00    -0.000 C 
ATOM     20  C   UNL     1       0.770  -0.180 -10.817  0.00  0.00    -0.000 C 
BRANCH  20  21
ATOM     21  C   UNL     1       0.292   0.421 -12.047  0.00  0.00    -0.000 C 
ATOM     22  C   UNL     1      -0.769  -0.045 -12.721  0.00  0.00    -0.001 C 
BRANCH  22  23
ATOM     23  C   UNL     1      -1.249   0.556 -13.942  0.00  0.00    -0.008 C 
ATOM     24  C   UNL     1      -2.311   0.095 -14.616  0.00  0.00    +0.008 C 
ENDBRANCH  22  23
ENDBRANCH  20  21
ENDBRANCH  18  19
ENDBRANCH  16  17
ENDBRANCH  15  16
ENDBRANCH  14  15
ENDBRANCH   1  13
BRANCH   1  25
ATOM     25  C   UNL     1       4.743  -0.661  -0.998  0.00  0.00    +0.088 C 
BRANCH  25  26
ATOM     26  C   UNL     1       3.237  -0.831  -0.877  0.00  0.00    +0.013 C 
ATOM     27  C   UNL     1       2.559  -1.894  -0.408  0.00  0.00    -0.054 C 
ATOM     28  C   UNL     1       3.063  -3.170   0.164  0.00  0.00    +0.040 C 
ATOM     29  C   UNL     1       1.075  -1.679  -0.583  0.00  0.00    +0.050 C 
ATOM     30  C   UNL     1       0.972  -0.209  -1.021  0.00  0.00    +0.105 C 
ATOM     31  N   UNL     1       2.354   0.179  -1.236  0.00  0.00    -0.346 N 
ATOM     32  H   UNL     1       2.599   0.713  -2.064  0.00  0.00    +0.146 HD
ENDBRANCH  25  26
BRANCH  25  35
ATOM     33  C   UNL     1       5.758   2.841   0.452  0.00  0.00    +0.035 C 
ATOM     34  C   UNL     1       5.468   1.381   0.344  0.00  0.00    -0.034 C 
ATOM     35  C   UNL     1       5.149   0.801  -0.825  0.00  0.00    -0.019 C 
ENDBRANCH  25  35
ENDBRANCH   1  25
TORSDOF 16
