REMARK  Name = 
REMARK  1 active torsions:
REMARK  status: ('A' for Active; 'I' for Inactive)
REMARK    1  A    between atoms: C_5  and  O_6
REMARK                            x       y       z     vdW  Elec       q    Type
REMARK                         _______ _______ _______ _____ _____    ______ ____
ROOT
ATOM      1  C   UNL     1      -0.363   1.229   0.132  0.00  0.00    +0.073 C 
ATOM      2  C   UNL     1      -1.241   0.009  -0.149  0.00  0.00    +0.012 C 
ATOM      3  C   UNL     1      -0.359  -1.215   0.111  0.00  0.00    +0.031 C 
ATOM      4  C   UNL     1       1.022  -0.672  -0.068  0.00  0.00    +0.014 C 
ATOM      5  C   UNL     1       1.003   0.662  -0.054  0.00  0.00    +0.090 C 
ENDROOT
BRANCH   5   6
ATOM      6  O   UNL     1       2.071   1.496  -0.181  0.00  0.00    -0.511 OA
ATOM      7  H   UNL     1       2.867   0.949  -0.302  0.00  0.00    +0.292 HD
ENDBRANCH   5   6
TORSDOF 1
