REMARK  Name = 
REMARK  4 active torsions:
REMARK  status: ('A' for Active; 'I' for Inactive)
REMARK    1  A    between atoms: C_14  and  C_15
REMARK    2  A    between atoms: C_23  and  C_24
REMARK    3  A    between atoms: C_24  and  N_25
REMARK    4  A    between atoms: N_25  and  N_26
REMARK                            x       y       z     vdW  Elec       q    Type
REMARK                         _______ _______ _______ _____ _____    ______ ____
ROOT
ATOM      1  C   UNL     1       1.439  -0.287  -3.060  0.00  0.00    +0.084 C 
ATOM      2  C   UNL     1       2.340  -0.862  -4.235  0.00  0.00    +0.106 C 
ATOM      3  N   UNL     1       3.013  -2.177  -4.025  0.00  0.00    -0.342 N 
ATOM      4  C   UNL     1       4.400  -2.288  -3.970  0.00  0.00    +0.071 C 
ATOM      5  C   UNL     1       5.212  -1.241  -4.192  0.00  0.00    -0.030 C 
ATOM      6  C   UNL     1       4.650  -0.127  -4.932  0.00  0.00    +0.003 C 
ATOM      7  C   UNL     1       3.325   0.085  -4.885  0.00  0.00    -0.004 C 
ATOM      8  C   UNL     1       6.500  -1.060  -3.413  0.00  0.00    +0.064 C 
ATOM      9  C   UNL     1       6.788   0.407  -3.162  0.00  0.00    -0.007 C 
ATOM     10  C   UNL     1       6.133   1.108  -2.228  0.00  0.00    +0.069 C 
ATOM     11  N   UNL     1       6.100   2.471  -2.046  0.00  0.00    -0.312 N 
ATOM     12  C   UNL     1       5.303   3.108  -1.138  0.00  0.00    +0.180 C 
ATOM     13  N   UNL     1       4.843   4.308  -1.229  0.00  0.00    -0.269 NA
ATOM     14  C   UNL     1       3.725   4.541  -0.277  0.00  0.00    +0.128 C 
ATOM     15  C   UNL     1       3.627   6.040  -0.024  0.00  0.00    +0.037 C 
ATOM     16  C   UNL     1       2.520   3.917  -0.960  0.00  0.00    +0.019 C 
ATOM     17  C   UNL     1       2.363   2.584  -0.871  0.00  0.00    +0.108 C 
ATOM     18  N   UNL     1       1.896   1.824  -1.912  0.00  0.00    -0.264 NA
ATOM     19  C   UNL     1       2.038   0.525  -1.886  0.00  0.00    +0.028 C 
ATOM     20  C   UNL     1       2.511  -0.247  -0.647  0.00  0.00    +0.055 C 
ATOM     21  C   UNL     1       2.216  -1.746  -0.668  0.00  0.00    +0.033 C 
ATOM     22  C   UNL     1       0.882  -1.990  -1.312  0.00  0.00    -0.025 C 
ATOM     23  C   UNL     1       0.429  -1.183  -2.306  0.00  0.00    -0.048 C 
ATOM     24  H   UNL     1       2.619  -2.903  -4.623  0.00  0.00    +0.146 HD
ATOM     25  H   UNL     1       6.298   3.019  -2.878  0.00  0.00    +0.152 HD
ENDROOT
BRANCH  23  26
ATOM     26  C   UNL     1      -1.037  -0.871  -2.343  0.00  0.00    +0.129 C 
BRANCH  26  27
ATOM     27  N   UNL     1      -1.339   0.522  -1.921  0.00  0.00    -0.255 NA
ATOM     28  H   UNL     1      -0.640   0.804  -1.222  0.00  0.00    +0.141 HD
BRANCH  27  29
ATOM     29  N   UNL     1      -1.332   1.406  -3.065  0.00  0.00    -0.270 NA
ATOM     30  H   UNL     1      -2.289   1.640  -3.342  0.00  0.00    +0.137 HD
ATOM     31  H   UNL     1      -0.886   2.301  -2.831  0.00  0.00    +0.137 HD
ENDBRANCH  27  29
ENDBRANCH  26  27
ENDBRANCH  23  26
TORSDOF 3
