REMARK  Name = 
REMARK  5 active torsions:
REMARK  status: ('A' for Active; 'I' for Inactive)
REMARK    1  A    between atoms: C_2  and  C_3
REMARK    2  A    between atoms: N_4  and  C_7
REMARK    3  A    between atoms: C_5  and  C_6
REMARK    4  A    between atoms: C_7  and  C_8
REMARK    5  A    between atoms: C_9  and  N_13
REMARK                            x       y       z     vdW  Elec       q    Type
REMARK                         _______ _______ _______ _____ _____    ______ ____
ROOT
ATOM      1  C   UNL     1      -1.458  -1.513  -2.432  0.00  0.00    +0.071 C 
ATOM      2  C   UNL     1      -1.199  -1.177  -3.892  0.00  0.00    +0.130 C 
ATOM      3  N   UNL     1      -2.303  -1.560  -3.390  0.00  0.00    -0.228 N 
ATOM      4  C   UNL     1      -3.575  -1.777  -3.724  0.00  0.00    +0.338 C 
ATOM      5  O   UNL     1      -4.060  -1.677  -4.847  0.00  0.00    -0.279 OA
ENDROOT
BRANCH   2   6
ATOM      6  N   UNL     1       0.059  -0.822  -4.232  0.00  0.00    -0.244 N 
ATOM      7 CL   UNL     1       0.164  -0.529  -5.929  0.00  0.00    -0.000 Cl
ATOM      8  H   UNL     1       0.807  -1.374  -3.830  0.00  0.00    +0.167 HD
ENDBRANCH   2   6
BRANCH   1   9
ATOM      9  C   UNL     1      -0.247  -1.295  -1.630  0.00  0.00    +0.139 C 
BRANCH   9  13
ATOM     10  C   UNL     1       0.289   1.071  -0.055  0.00  0.00    +0.037 C 
ATOM     11  C   UNL     1      -1.072   0.374   0.101  0.00  0.00    +0.056 C 
ATOM     12  C   UNL     1      -2.236   0.838  -0.750  0.00  0.00    +0.024 C 
ATOM     13  N   UNL     1      -0.422  -0.945  -0.192  0.00  0.00    -0.291 NA
ATOM     14  C   UNL     1       0.890  -0.321   0.248  0.00  0.00    +0.056 C 
ATOM     15  C   UNL     1       1.264  -0.595   1.697  0.00  0.00    +0.024 C 
ENDBRANCH   9  13
ENDBRANCH   1   9
TORSDOF 3
