REMARK  Name = 
REMARK  0 active torsions:
REMARK  status: ('A' for Active; 'I' for Inactive)
REMARK                            x       y       z     vdW  Elec       q    Type
REMARK                         _______ _______ _______ _____ _____    ______ ____
ROOT
ATOM      1  C   UNL     1      -0.813  -2.680  -0.248  0.00  0.00    +0.064 C 
ATOM      2  C   UNL     1      -0.515  -1.681   0.747  0.00  0.00    -0.010 C 
ATOM      3  C   UNL     1      -1.326  -1.299  -0.246  0.00  0.00    -0.040 C 
ATOM      4  C   UNL     1      -2.769  -1.151  -0.186  0.00  0.00    +0.004 C 
ATOM      5  C   UNL     1      -3.609  -2.191  -0.026  0.00  0.00    +0.000 C 
ATOM      6  C   UNL     1      -3.101  -3.534   0.156  0.00  0.00    -0.003 C 
ATOM      7  C   UNL     1      -1.775  -3.743   0.077  0.00  0.00    -0.015 C 
ENDROOT
TORSDOF 0
