REMARK  Name = 
REMARK  14 active torsions:
REMARK  status: ('A' for Active; 'I' for Inactive)
REMARK    1  A    between atoms: C_4  and  C_13
REMARK    2  A    between atoms: C_7  and  C_8
REMARK    3  A    between atoms: C_11  and  C_12
REMARK    4  A    between atoms: C_14  and  N_15
REMARK    5  A    between atoms: C_19  and  C_20
REMARK    6  A    between atoms: C_20  and  C_21
REMARK    7  A    between atoms: C_21  and  C_23
REMARK    8  A    between atoms: C_23  and  C_24
REMARK    9  A    between atoms: C_24  and  C_25
REMARK   10  A    between atoms: C_25  and  C_26
REMARK   11  A    between atoms: C_27  and  C_28
REMARK   12  A    between atoms: C_28  and  C_29
REMARK   13  A    between atoms: C_29  and  C_30
REMARK   14  A    between atoms: C_31  and  C_32
REMARK                            x       y       z     vdW  Elec       q    Type
REMARK                         _______ _______ _______ _____ _____    ______ ____
ROOT
ATOM      1  C   UNL     1       3.689   1.540  -0.002  0.00  0.00    +0.012 C 
ATOM      2  C   UNL     1       3.762  -1.339  -0.000  0.00  0.00    +0.082 C 
ATOM      3  C   UNL     1       3.222  -0.607   1.267  0.00  0.00    +0.033 C 
ATOM      4  C   UNL     1       2.604   0.626   0.932  0.00  0.00    -0.028 C 
ENDROOT
BRANCH   1   8
ATOM      5  C   UNL     1       2.478   3.058  -3.823  0.00  0.00    -0.037 A 
ATOM      6  C   UNL     1       1.745   3.392  -2.673  0.00  0.00    +0.005 A 
ATOM      7  C   UNL     1       2.070   2.827  -1.445  0.00  0.00    +0.009 A 
ATOM      8  C   UNL     1       3.104   1.902  -1.377  0.00  0.00    -0.015 A 
ATOM      9  C   UNL     1       3.654   1.362  -2.534  0.00  0.00    +0.013 A 
ATOM     10  C   UNL     1       3.354   1.945  -3.782  0.00  0.00    -0.037 A 
ATOM     11  C   UNL     1       3.984   1.401  -5.063  0.00  0.00    +0.039 C 
ATOM     12  C   UNL     1       5.481   1.112  -4.893  0.00  0.00    +0.017 C 
ATOM     13  C   UNL     1       3.769   2.273  -6.277  0.00  0.00    -0.023 C 
ATOM     14  C   UNL     1       3.131   3.453  -6.246  0.00  0.00    -0.023 C 
ATOM     15  C   UNL     1       2.566   4.047  -4.985  0.00  0.00    +0.039 C 
ATOM     16  C   UNL     1       1.299   4.853  -5.287  0.00  0.00    +0.017 C 
ENDBRANCH   1   8
BRANCH   2  17
ATOM     17  N   UNL     1       3.799  -2.809   0.001  0.00  0.00    -0.205 NA
ATOM     18  C   UNL     1       4.893  -3.216  -0.096  0.00  0.00    -0.019 C 
ATOM     19  C   UNL     1       6.064  -3.754  -0.169  0.00  0.00    +0.091 C 
ENDBRANCH   2  17
BRANCH   4  20
ATOM     20  C   UNL     1       1.294   1.219   1.643  0.00  0.00    +0.110 C 
BRANCH  20  21
ATOM     21  C   UNL     1       0.800   0.594   2.969  0.00  0.00    +0.138 C 
ATOM     22  O   UNL     1       1.579   0.124   3.798  0.00  0.00    -0.297 OA
BRANCH  21  23
ATOM     23  C   UNL     1      -0.718   0.648   3.264  0.00  0.00    +0.075 C 
BRANCH  23  24
ATOM     24  C   UNL     1      -1.238   0.032   4.598  0.00  0.00    +0.012 C 
BRANCH  24  25
ATOM     25  C   UNL     1      -0.833   0.762   5.896  0.00  0.00    +0.027 C 
BRANCH  25  26
ATOM     26  C   UNL     1      -1.456   0.160   7.151  0.00  0.00    -0.031 C 
ATOM     27  C   UNL     1      -0.764  -0.399   8.164  0.00  0.00    -0.031 C 
BRANCH  27  28
ATOM     28  C   UNL     1      -1.374  -0.973   9.428  0.00  0.00    +0.031 C 
BRANCH  28  29
ATOM     29  C   UNL     1      -0.476  -0.793  10.668  0.00  0.00    +0.031 C 
BRANCH  29  30
ATOM     30  C   UNL     1      -1.061  -1.424  11.909  0.00  0.00    -0.031 C 
ATOM     31  C   UNL     1      -1.325  -0.756  13.045  0.00  0.00    -0.034 C 
ATOM     32  C   UNL     1      -1.872  -1.389  14.287  0.00  0.00    +0.035 C 
ENDBRANCH  29  30
ENDBRANCH  28  29
ENDBRANCH  27  28
ENDBRANCH  25  26
ENDBRANCH  24  25
ENDBRANCH  23  24
ENDBRANCH  21  23
ENDBRANCH  20  21
ENDBRANCH   4  20
TORSDOF 11
