REMARK  Name = 
REMARK  21 active torsions:
REMARK  status: ('A' for Active; 'I' for Inactive)
REMARK    1  A    between atoms: C_1  and  C_2
REMARK    2  A    between atoms: C_3  and  C_4
REMARK    3  A    between atoms: C_4  and  C_5
REMARK    4  A    between atoms: C_4  and  C_17
REMARK    5  A    between atoms: C_5  and  C_7
REMARK    6  A    between atoms: C_7  and  C_8
REMARK    7  A    between atoms: C_8  and  C_9
REMARK    8  A    between atoms: C_10  and  C_11
REMARK    9  A    between atoms: C_12  and  N_13
REMARK   10  A    between atoms: N_13  and  C_14
REMARK   11  A    between atoms: C_15  and  C_16
REMARK   12  A    between atoms: C_17  and  N_18
REMARK   13  A    between atoms: C_19  and  C_20
REMARK   14  A    between atoms: C_21  and  C_22
REMARK   15  A    between atoms: C_22  and  C_23
REMARK   16  A    between atoms: C_23  and  C_24
REMARK   17  A    between atoms: C_24  and  N_25
REMARK   18  A    between atoms: N_25  and  C_26
REMARK   19  A    between atoms: C_26  and  N_27
REMARK   20  A    between atoms: N_27  and  C_28
REMARK   21  A    between atoms: C_28  and  C_29
REMARK                            x       y       z     vdW  Elec       q    Type
REMARK                         _______ _______ _______ _____ _____    ______ ____
ROOT
ATOM      1  C   UNL     1       4.748  -0.047  -1.194  0.00  0.00    +0.085 C 
ENDROOT
BRANCH   1   4
ATOM      2  C   UNL     1       0.955  -1.045  -0.701  0.00  0.00    +0.035 C 
ATOM      3  C   UNL     1       2.411  -1.171  -0.969  0.00  0.00    -0.033 C 
ATOM      4  C   UNL     1       3.232  -0.104  -0.943  0.00  0.00    -0.018 C 
ENDBRANCH   1   4
BRANCH   1   5
ATOM      5  C   UNL     1       5.113   0.457  -2.640  0.00  0.00    +0.048 C 
ATOM      6  C   UNL     1       4.185   0.370  -3.623  0.00  0.00    -0.003 C 
BRANCH   5   7
ATOM      7  N   UNL     1       6.304   1.109  -2.938  0.00  0.00    -0.264 NA
ATOM      8  C   UNL     1       6.828   1.956  -2.115  0.00  0.00    +0.080 C 
ATOM      9  C   UNL     1       8.101   2.689  -2.454  0.00  0.00    +0.057 C 
ENDBRANCH   5   7
BRANCH   6  10
ATOM     10  C   UNL     1       4.261   1.040  -4.973  0.00  0.00    +0.030 C 
BRANCH  10  11
ATOM     11  C   UNL     1       3.105   2.032  -5.231  0.00  0.00    +0.019 C 
BRANCH  11  12
ATOM     12  C   UNL     1       3.103   3.150  -4.181  0.00  0.00    +0.082 C 
BRANCH  12  13
ATOM     13  N   UNL     1       2.026   4.122  -4.392  0.00  0.00    -0.304 NA
ATOM     14  H   UNL     1       1.124   3.657  -4.360  0.00  0.00    +0.123 HD
BRANCH  13  15
ATOM     15  C   UNL     1       2.079   5.143  -3.366  0.00  0.00    +0.165 C 
BRANCH  15  16
ATOM     16  N   UNL     1       0.998   6.066  -3.627  0.00  0.00    -0.304 NA
ATOM     17  H   UNL     1       0.114   5.566  -3.613  0.00  0.00    +0.123 HD
BRANCH  16  18
ATOM     18  C   UNL     1       0.988   7.133  -2.627  0.00  0.00    +0.079 C 
ATOM     19  C   UNL     1      -0.144   8.114  -2.887  0.00  0.00    +0.020 C 
ENDBRANCH  16  18
ENDBRANCH  15  16
ENDBRANCH  13  15
ENDBRANCH  12  13
ENDBRANCH  11  12
ENDBRANCH  10  11
ENDBRANCH   6  10
ENDBRANCH   1   5
BRANCH   1  20
ATOM     20  C   UNL     1       5.388  -1.376  -0.765  0.00  0.00    -0.064 C 
ATOM     21  C   UNL     1       5.062  -2.561  -1.321  0.00  0.00    +0.008 C 
BRANCH  20  22
ATOM     22  C   UNL     1       6.390  -1.288   0.377  0.00  0.00    +0.035 C 
BRANCH  22  23
ATOM     23  C   UNL     1       5.843  -0.729   1.699  0.00  0.00    +0.031 C 
BRANCH  23  24
ATOM     24  C   UNL     1       6.881  -0.646   2.786  0.00  0.00    -0.026 C 
ATOM     25  C   UNL     1       7.197   0.529   3.353  0.00  0.00    -0.003 C 
BRANCH  25  26
ATOM     26  C   UNL     1       8.191   0.678   4.386  0.00  0.00    +0.015 C 
ATOM     27  C   UNL     1       8.498   1.862   4.936  0.00  0.00    +0.081 C 
BRANCH  27  28
ATOM     28  N   UNL     1       9.426   2.064   5.914  0.00  0.00    -0.281 N 
ATOM     29  H   UNL     1       9.879   1.258   6.310  0.00  0.00    +0.162 HD
BRANCH  28  30
ATOM     30  C   UNL     1       9.676   3.396   6.450  0.00  0.00    -0.001 C 
ATOM     31  C   UNL     1       9.919   4.455   6.921  0.00  0.00    -0.085 C 
ATOM     32  C   UNL     1      10.272   5.747   7.531  0.00  0.00    +0.108 C 
ENDBRANCH  28  30
ENDBRANCH  27  28
ENDBRANCH  25  26
ENDBRANCH  23  24
ENDBRANCH  22  23
ENDBRANCH  20  22
ENDBRANCH   1  20
TORSDOF 17
