REMARK  Name = 
REMARK  14 active torsions:
REMARK  status: ('A' for Active; 'I' for Inactive)
REMARK    1  A    between atoms: C_6  and  C_7
REMARK    2  A    between atoms: C_8  and  C_9
REMARK    3  A    between atoms: C_9  and  C_10
REMARK    4  A    between atoms: C_10  and  C_11
REMARK    5  A    between atoms: C_11  and  N_12
REMARK    6  A    between atoms: N_12  and  C_13
REMARK    7  A    between atoms: C_14  and  C_15
REMARK    8  A    between atoms: N_21  and  C_22
REMARK    9  A    between atoms: C_23  and  C_24
REMARK   10  A    between atoms: C_24  and  C_25
REMARK   11  A    between atoms: N_26  and  C_27
REMARK   12  A    between atoms: C_28  and  C_29
REMARK   13  A    between atoms: C_30  and  N_31
REMARK   14  A    between atoms: N_31  and  N_32
REMARK                            x       y       z     vdW  Elec       q    Type
REMARK                         _______ _______ _______ _____ _____    ______ ____
ROOT
ATOM      1  C   UNL     1      12.552  -3.446  -6.064  0.00  0.00    +0.025 C 
ATOM      2  C   UNL     1      13.146  -4.111  -7.087  0.00  0.00    +0.038 C 
ATOM      3  C   UNL     1      12.312  -4.741  -8.131  0.00  0.00    +0.024 C 
ATOM      4  C   UNL     1      12.838  -5.284  -9.242  0.00  0.00    +0.003 C 
ATOM      5  C   UNL     1      14.260  -5.289  -9.439  0.00  0.00    +0.016 C 
ATOM      6  C   UNL     1      15.037  -4.769  -8.481  0.00  0.00    +0.080 C 
ATOM      7  N   UNL     1      14.574  -4.196  -7.283  0.00  0.00    -0.283 N 
ENDROOT
BRANCH   1   9
ATOM      8  C   UNL     1      10.628  -2.514  -4.837  0.00  0.00    +0.067 C 
ATOM      9  C   UNL     1      11.135  -3.352  -5.750  0.00  0.00    +0.017 C 
BRANCH   8  10
ATOM     10  N   UNL     1       9.301  -2.403  -4.472  0.00  0.00    -0.350 N 
ATOM     11  H   UNL     1       9.105  -1.542  -3.963  0.00  0.00    +0.146 HD
BRANCH  10  12
ATOM     12  C   UNL     1       8.525  -3.532  -3.962  0.00  0.00    +0.101 C 
BRANCH  12  13
ATOM     13  C   UNL     1       8.677  -3.640  -2.439  0.00  0.00    +0.023 C 
BRANCH  13  14
ATOM     14  C   UNL     1       7.822  -4.790  -1.916  0.00  0.00    +0.029 C 
BRANCH  14  16
ATOM     15  C   UNL     1       8.371  -6.148   0.092  0.00  0.00    -0.004 C 
ATOM     16  C   UNL     1       7.907  -5.002  -0.429  0.00  0.00    -0.027 C 
BRANCH  15  22
ATOM     17  C   UNL     1       8.734  -8.079   3.375  0.00  0.00    +0.055 C 
ATOM     18  C   UNL     1       9.500  -9.118   3.484  0.00  0.00    -0.123 C 
ATOM     19  C   UNL     1      10.167  -9.520   2.448  0.00  0.00    +0.029 C 
ATOM     20  C   UNL     1       9.734  -8.645   1.286  0.00  0.00    +0.071 C 
ATOM     21  C   UNL     1       8.827  -7.623   1.990  0.00  0.00    -0.035 C 
ATOM     22  C   UNL     1       8.290  -6.501   1.490  0.00  0.00    +0.004 C 
ENDBRANCH  15  22
ENDBRANCH  14  16
ENDBRANCH  13  14
ENDBRANCH  12  13
ENDBRANCH  10  12
ENDBRANCH   8  10
ENDBRANCH   1   9
BRANCH   7  23
ATOM     23  C   UNL     1      15.500  -3.866  -6.279  0.00  0.00    +0.076 C 
ATOM     24  C   UNL     1      16.784  -3.480  -6.394  0.00  0.00    -0.006 C 
BRANCH  24  25
ATOM     25  C   UNL     1      17.719  -3.248  -5.242  0.00  0.00    +0.075 C 
BRANCH  25  26
ATOM     26  C   UNL     1      18.956  -4.098  -5.455  0.00  0.00    +0.087 C 
ATOM     27  N   UNL     1      20.114  -3.544  -5.625  0.00  0.00    -0.267 NA
BRANCH  27  28
ATOM     28  C   UNL     1      21.176  -4.388  -5.829  0.00  0.00    +0.110 C 
ATOM     29  C   UNL     1      22.424  -3.915  -5.957  0.00  0.00    +0.021 C 
BRANCH  29  30
ATOM     30  C   UNL     1      23.583  -4.737  -6.235  0.00  0.00    +0.018 C 
ATOM     31  C   UNL     1      24.804  -4.226  -6.428  0.00  0.00    +0.084 C 
BRANCH  31  32
ATOM     32  N   UNL     1      25.940  -4.925  -6.761  0.00  0.00    -0.290 N 
ATOM     33  H   UNL     1      25.902  -5.935  -6.601  0.00  0.00    +0.165 HD
BRANCH  32  34
ATOM     34  N   UNL     1      27.187  -4.305  -6.794  0.00  0.00    -0.257 NA
ATOM     35  H   UNL     1      27.102  -3.286  -6.839  0.00  0.00    +0.140 HD
ATOM     36  H   UNL     1      27.669  -4.555  -7.663  0.00  0.00    +0.140 HD
ENDBRANCH  32  34
ENDBRANCH  31  32
ENDBRANCH  29  30
ENDBRANCH  27  28
ENDBRANCH  25  26
ENDBRANCH  24  25
ENDBRANCH   7  23
TORSDOF 14
