REMARK  Name = 
REMARK  9 active torsions:
REMARK  status: ('A' for Active; 'I' for Inactive)
REMARK    1  A    between atoms: C_7  and  N_8
REMARK    2  A    between atoms: C_7  and  C_9
REMARK    3  A    between atoms: N_10  and  C_11
REMARK    4  A    between atoms: CA_15  and  C_17
REMARK    5  A    between atoms: C_20  and  C_21
REMARK    6  A    between atoms: C_21  and  C_22
REMARK    7  A    between atoms: C_23  and  N_24
REMARK    8  A    between atoms: N_24  and  C_25
REMARK    9  A    between atoms: C_25  and  C_26
REMARK                            x       y       z     vdW  Elec       q    Type
REMARK                         _______ _______ _______ _____ _____    ______ ____
ROOT
ATOM      1  C   UNL     1      -0.044  -5.277  -2.721  0.00  0.00    +0.263 C 
ATOM      2  C   UNL     1      -0.430  -4.485  -1.685  0.00  0.00    +0.133 C 
ATOM      3  N   UNL     1      -0.057  -5.251  -2.687  0.00  0.00    -0.262 NA
ATOM      4  C   UNL     1       0.172  -4.475  -4.345  0.00  0.00    +0.137 C 
ATOM      5  CA  UNL     1       0.523  -5.443  -5.233  0.00  0.00    +0.090 C 
ATOM      6  N   UNL     1       0.270  -6.818  -5.006  0.00  0.00    -0.299 N 
ATOM      7  N   UNL     1      -0.466  -7.117  -2.607  0.00  0.00    -0.241 NA
ATOM      8  C   UNL     1      -0.203  -7.519  -3.851  0.00  0.00    +0.101 C 
ATOM      9  H   UNL     1       0.707  -7.392  -5.727  0.00  0.00    +0.153 HD
ENDROOT
BRANCH   1  11
ATOM     10  C   UNL     1       2.723  -4.914  -1.350  0.00  0.00    +0.107 C 
ATOM     11  N   UNL     1       1.524  -4.648  -1.757  0.00  0.00    -0.262 NA
BRANCH  10  18
ATOM     12  C   UNL     1       4.492  -5.553  -3.845  0.00  0.00    -0.022 C 
ATOM     13  C   UNL     1       3.902  -6.424  -2.945  0.00  0.00    -0.048 C 
ATOM     14  C   UNL     1       5.035  -7.438  -3.361  0.00  0.00    +0.040 C 
ATOM     15  C   UNL     1       5.846  -6.104  -3.338  0.00  0.00    +0.016 C 
ATOM     16  C   UNL     1       6.273  -5.670  -1.929  0.00  0.00    +0.010 C 
ATOM     17  C   UNL     1       5.119  -5.794  -0.886  0.00  0.00    +0.033 C 
ATOM     18  C   UNL     1       3.666  -6.096  -1.453  0.00  0.00    +0.073 C 
BRANCH  18  19
ATOM     19  N   UNL     1       3.095  -7.176  -0.662  0.00  0.00    -0.317 NA
ATOM     20  H   UNL     1       3.582  -8.043  -0.858  0.00  0.00    +0.119 HD
ATOM     21  H   UNL     1       2.125  -7.301  -0.960  0.00  0.00    +0.119 HD
ENDBRANCH  18  19
ENDBRANCH  10  18
ENDBRANCH   1  11
BRANCH   5  22
ATOM     22  C   UNL     1       1.530  -5.060  -6.267  0.00  0.00    +0.275 C 
ATOM     23  O   UNL     1       2.015  -5.882  -7.039  0.00  0.00    -0.294 OA
ENDBRANCH   5  22
BRANCH   8  24
ATOM     24  C   UNL     1      -0.405  -9.023  -4.073  0.00  0.00    +0.099 C 
BRANCH  24  25
ATOM     25  C   UNL     1      -1.789  -9.261  -4.597  0.00  0.00    -0.005 C 
ATOM     26  C   UNL     1      -2.058  -9.926  -5.725  0.00  0.00    +0.063 C 
BRANCH  26  27
ATOM     27  N   UNL     1      -3.312 -10.205  -6.201  0.00  0.00    -0.350 N 
ATOM     28  H   UNL     1      -4.085  -9.764  -5.705  0.00  0.00    +0.146 HD
BRANCH  27  29
ATOM     29  C   UNL     1      -3.615 -10.899  -7.427  0.00  0.00    +0.097 C 
ATOM     30  C   UNL     1      -4.935 -11.643  -7.288  0.00  0.00    +0.024 C 
ENDBRANCH  27  29
ENDBRANCH  26  27
ENDBRANCH  24  25
ENDBRANCH   8  24
TORSDOF 8
