REMARK  Name = 
REMARK  17 active torsions:
REMARK  status: ('A' for Active; 'I' for Inactive)
REMARK    1  A    between atoms: C_5  and  C_6
REMARK    2  A    between atoms: C_6  and  C_7
REMARK    3  A    between atoms: C_8  and  C_9
REMARK    4  A    between atoms: C_9  and  C_10
REMARK    5  A    between atoms: C_15  and  C_16
REMARK    6  A    between atoms: C_16  and  C_17
REMARK    7  A    between atoms: C_17  and  C_18
REMARK    8  A    between atoms: C_18  and  C_19
REMARK    9  A    between atoms: C_18  and  C_23
REMARK   10  A    between atoms: C_20  and  C_21
REMARK   11  A    between atoms: C_21  and  C_22
REMARK   12  A    between atoms: C_23  and  C_25
REMARK   13  A    between atoms: C_25  and  C_26
REMARK   14  A    between atoms: C_26  and  C_27
REMARK   15  A    between atoms: C_27  and  C_28
REMARK   16  A    between atoms: C_28  and  N_29
REMARK   17  A    between atoms: N_29  and  C_30
REMARK                            x       y       z     vdW  Elec       q    Type
REMARK                         _______ _______ _______ _____ _____    ______ ____
ROOT
ATOM      1  C   UNL     1       1.259  -4.776   0.955  0.00  0.00    +0.097 C 
ATOM      2  N   UNL     1       1.008  -5.029  -0.464  0.00  0.00    -0.343 N 
ATOM      3  C   UNL     1       1.876  -4.647  -1.460  0.00  0.00    +0.068 C 
ATOM      4  C   UNL     1       3.036  -4.035  -1.211  0.00  0.00    +0.015 C 
ATOM      5  C   UNL     1       3.355  -3.658   0.141  0.00  0.00    +0.002 C 
ATOM      6  C   UNL     1       2.515  -3.940   1.155  0.00  0.00    -0.050 C 
ATOM      7  H   UNL     1       0.029  -5.045  -0.732  0.00  0.00    +0.146 HD
ENDROOT
BRANCH   1   8
ATOM      8  C   UNL     1       1.193  -6.087   1.740  0.00  0.00    +0.036 C 
BRANCH   8  14
ATOM      9  C   UNL     1       1.309  -8.338  -0.818  0.00  0.00    -0.015 C 
ATOM     10  C   UNL     1       0.385  -8.630   0.103  0.00  0.00    +0.000 C 
ATOM     11  C   UNL     1       1.231  -8.685   1.373  0.00  0.00    -0.046 C 
ATOM     12  C   UNL     1       2.500  -9.219   1.209  0.00  0.00    -0.012 C 
ATOM     13  C   UNL     1       2.596  -8.164  -0.044  0.00  0.00    +0.014 C 
ATOM     14  C   UNL     1       2.209  -7.210   1.372  0.00  0.00    +0.034 C 
BRANCH  13  15
ATOM     15  C   UNL     1       3.880  -8.496  -0.814  0.00  0.00    +0.012 C 
ATOM     16  C   UNL     1       4.132  -7.658  -2.055  0.00  0.00    +0.005 C 
ENDBRANCH  13  15
ENDBRANCH   8  14
ENDBRANCH   1   8
BRANCH   6  17
ATOM     17  C   UNL     1       2.728  -3.262   2.486  0.00  0.00    +0.033 C 
BRANCH  17  18
ATOM     18  C   UNL     1       1.977  -1.911   2.535  0.00  0.00    +0.019 C 
BRANCH  18  19
ATOM     19  C   UNL     1       2.184  -1.080   3.814  0.00  0.00    +0.078 C 
BRANCH  19  20
ATOM     20  C   UNL     1       1.692  -1.805   5.037  0.00  0.00    -0.020 C 
ATOM     21  C   UNL     1       0.425  -1.742   5.477  0.00  0.00    -0.031 C 
BRANCH  21  22
ATOM     22  C   UNL     1      -0.090  -2.568   6.619  0.00  0.00    +0.023 C 
ATOM     23  C   UNL     1      -1.234  -3.459   6.157  0.00  0.00    +0.008 C 
ENDBRANCH  21  22
ENDBRANCH  19  20
BRANCH  19  24
ATOM     24  C   UNL     1       3.658  -0.711   3.990  0.00  0.00    +0.140 C 
ATOM     25  O   UNL     1       4.521  -1.565   4.210  0.00  0.00    -0.297 OA
BRANCH  24  26
ATOM     26  C   UNL     1       4.022   0.757   3.943  0.00  0.00    +0.075 C 
BRANCH  26  27
ATOM     27  C   UNL     1       5.400   0.928   3.310  0.00  0.00    +0.009 C 
BRANCH  27  28
ATOM     28  C   UNL     1       5.836   2.384   3.307  0.00  0.00    +0.015 C 
BRANCH  28  29
ATOM     29  C   UNL     1       7.218   2.529   2.680  0.00  0.00    +0.080 C 
BRANCH  29  30
ATOM     30  N   UNL     1       7.613   3.933   2.700  0.00  0.00    -0.319 NA
ATOM     31  C   UNL     1       8.931   4.102   2.098  0.00  0.00    +0.101 C 
ATOM     32  H   UNL     1       7.632   4.272   3.652  0.00  0.00    +0.122 HD
ENDBRANCH  29  30
ENDBRANCH  28  29
ENDBRANCH  27  28
ENDBRANCH  26  27
ENDBRANCH  24  26
ENDBRANCH  19  24
ENDBRANCH  18  19
ENDBRANCH  17  18
ENDBRANCH   6  17
TORSDOF 14
