REMARK  Name = 
REMARK  8 active torsions:
REMARK  status: ('A' for Active; 'I' for Inactive)
REMARK    1  A    between atoms: C_1  and  C_2
REMARK    2  A    between atoms: C_2  and  C_3
REMARK    3  A    between atoms: C_3  and  C_4
REMARK    4  A    between atoms: C_5  and  C_6
REMARK    5  A    between atoms: C_6  and  C_7
REMARK    6  A    between atoms: C_7  and  C_8
REMARK    7  A    between atoms: C_8  and  C_9
REMARK    8  A    between atoms: C_9  and  C_11
REMARK                            x       y       z     vdW  Elec       q    Type
REMARK                         _______ _______ _______ _____ _____    ______ ____
ROOT
ATOM      1  C   UNL     1       7.222   1.028   3.914  0.00  0.00    +0.009 C 
ENDROOT
BRANCH   1   2
ATOM      2  C   UNL     1       6.723   0.667   2.500  0.00  0.00    +0.027 C 
BRANCH   2   4
ATOM      3  C   UNL     1       4.472   1.457   1.694  0.00  0.00    -0.031 C 
ATOM      4  C   UNL     1       5.217   0.656   2.472  0.00  0.00    -0.031 C 
BRANCH   3   5
ATOM      5  C   UNL     1       2.968   1.447   1.694  0.00  0.00    +0.026 C 
BRANCH   5   7
ATOM      6  C   UNL     1       0.891   1.090   0.312  0.00  0.00    +0.004 C 
ATOM      7  C   UNL     1       2.412   1.103   0.313  0.00  0.00    +0.001 C 
ENDBRANCH   5   7
ENDBRANCH   3   5
ENDBRANCH   2   4
ENDBRANCH   1   2
BRANCH   1   8
ATOM      8  C   UNL     1       8.749   1.103   4.012  0.00  0.00    +0.035 C 
BRANCH   8   9
ATOM      9  C   UNL     1       9.232   1.502   5.416  0.00  0.00    -0.053 C 
ATOM     10  C   UNL     1       9.974   0.614   6.122  0.00  0.00    +0.012 C 
BRANCH   9  11
ATOM     11  C   UNL     1       8.860   2.836   6.000  0.00  0.00    +0.029 C 
ATOM     12  C   UNL     1       8.561   3.922   5.261  0.00  0.00    +0.076 C 
ATOM     13  C   UNL     1       8.252   5.068   6.232  0.00  0.00    -0.051 C 
ATOM     14  C   UNL     1       8.163   5.307   5.077  0.00  0.00    -0.051 C 
ENDBRANCH   9  11
ENDBRANCH   8   9
ENDBRANCH   1   8
TORSDOF 7
