REMARK  Name = 
REMARK  7 active torsions:
REMARK  status: ('A' for Active; 'I' for Inactive)
REMARK    1  A    between atoms: C_13  and  N_14
REMARK    2  A    between atoms: N_14  and  C_15
REMARK    3  A    between atoms: C_15  and  C_16
REMARK    4  A    between atoms: C_17  and  C_18
REMARK    5  A    between atoms: C_18  and  C_19
REMARK    6  A    between atoms: C_19  and  C_20
REMARK    7  A    between atoms: C_20  and  C_21
REMARK                            x       y       z     vdW  Elec       q    Type
REMARK                         _______ _______ _______ _____ _____    ______ ____
ROOT
ATOM      1  C   UNL     1      -4.532  -1.183   0.645  0.00  0.00    -0.027 A 
ATOM      2  C   UNL     1      -5.492  -1.433  -0.285  0.00  0.00    +0.005 A 
ATOM      3  C   UNL     1      -6.539  -0.457   0.064  0.00  0.00    +0.005 A 
ATOM      4  C   UNL     1      -5.942   0.280   1.047  0.00  0.00    -0.027 A 
ATOM      5  C   UNL     1      -5.915  -0.370   2.344  0.00  0.00    +0.005 A 
ATOM      6  C   UNL     1      -4.972  -1.308   2.135  0.00  0.00    +0.005 A 
ATOM      7  C   UNL     1      -4.377   0.396   0.757  0.00  0.00    +0.082 C 
ATOM      8  C   UNL     1      -4.323   1.656  -0.109  0.00  0.00    -0.012 C 
ATOM      9  C   UNL     1      -4.726   2.772   0.557  0.00  0.00    +0.016 C 
ATOM     10  C   UNL     1      -2.882  -0.073   0.566  0.00  0.00    +0.104 C 
ATOM     11  N   UNL     1      -2.160   0.002  -0.541  0.00  0.00    -0.264 NA
ATOM     12  C   UNL     1      -2.687   0.726  -1.557  0.00  0.00    +0.133 C 
ATOM     13  C   UNL     1      -3.681   1.655  -1.422  0.00  0.00    +0.050 C 
ENDROOT
BRANCH  13  14
ATOM     14  N   UNL     1      -4.014   2.539  -2.444  0.00  0.00    -0.339 N 
ATOM     15  H   UNL     1      -4.893   3.024  -2.275  0.00  0.00    +0.146 HD
BRANCH  14  16
ATOM     16  C   UNL     1      -3.798   2.201  -3.847  0.00  0.00    +0.128 C 
BRANCH  16  17
ATOM     17  C   UNL     1      -4.161   3.313  -4.782  0.00  0.00    -0.013 C 
ATOM     18  C   UNL     1      -3.502   4.465  -4.722  0.00  0.00    -0.030 C 
BRANCH  18  19
ATOM     19  C   UNL     1      -3.670   5.633  -5.649  0.00  0.00    +0.027 C 
BRANCH  19  20
ATOM     20  C   UNL     1      -2.349   5.985  -6.325  0.00  0.00    +0.004 C 
BRANCH  20  21
ATOM     21  C   UNL     1      -2.537   7.183  -7.250  0.00  0.00    -0.003 C 
ATOM     22  C   UNL     1      -1.243   7.563  -7.948  0.00  0.00    +0.004 C 
ENDBRANCH  20  21
ENDBRANCH  19  20
ENDBRANCH  18  19
ENDBRANCH  16  17
ENDBRANCH  14  16
ENDBRANCH  13  14
TORSDOF 6
