REMARK  Name = 
REMARK  7 active torsions:
REMARK  status: ('A' for Active; 'I' for Inactive)
REMARK    1  A    between atoms: C_2  and  C_3
REMARK    2  A    between atoms: C_3  and  C_4
REMARK    3  A    between atoms: C_5  and  C_6
REMARK    4  A    between atoms: C_5  and  C_13
REMARK    5  A    between atoms: C_11  and  C_12
REMARK    6  A    between atoms: C_13  and  C_14
REMARK    7  A    between atoms: C_15  and  C_16
REMARK                            x       y       z     vdW  Elec       q    Type
REMARK                         _______ _______ _______ _____ _____    ______ ____
ROOT
ATOM      1  C   UNL     1       4.509   0.789   0.632  0.00  0.00    -0.018 C 
ATOM      2  C   UNL     1       5.329   1.124   1.653  0.00  0.00    -0.039 C 
ENDROOT
BRANCH   2   3
ATOM      3  C   UNL     1       4.850   1.858   2.823  0.00  0.00    -0.005 C 
ATOM      4  C   UNL     1       5.289   3.097   3.092  0.00  0.00    -0.015 C 
ATOM      5  C   UNL     1       4.850   3.890   4.276  0.00  0.00    +0.051 C 
ATOM      6  C   UNL     1       3.593   3.373   4.965  0.00  0.00    +0.146 C 
ATOM      7  N   UNL     1       3.304   1.955   4.774  0.00  0.00    -0.288 NA
ATOM      8  C   UNL     1       3.845   1.303   3.803  0.00  0.00    +0.040 C 
ATOM      9  C   UNL     1       3.418  -0.150   3.691  0.00  0.00    +0.066 C 
ENDBRANCH   2   3
BRANCH   1  10
ATOM     10  C   UNL     1       3.024   1.050   0.543  0.00  0.00    +0.054 C 
BRANCH  10  12
ATOM     11  C   UNL     1       1.770   1.313  -1.603  0.00  0.00    +0.004 C 
ATOM     12  C   UNL     1       2.647   1.778  -0.706  0.00  0.00    -0.030 C 
ENDBRANCH  10  12
ENDBRANCH   1  10
BRANCH   2  13
ATOM     13  C   UNL     1       6.836   0.893   1.555  0.00  0.00    +0.062 C 
BRANCH  13  14
ATOM     14  C   UNL     1       7.289  -0.413   2.156  0.00  0.00    -0.022 C 
ATOM     15  C   UNL     1       8.222  -0.522   3.118  0.00  0.00    -0.004 C 
BRANCH  15  16
ATOM     16  C   UNL     1       8.671  -1.796   3.629  0.00  0.00    -0.008 C 
ATOM     17  C   UNL     1       9.604  -1.927   4.581  0.00  0.00    +0.008 C 
ENDBRANCH  15  16
ENDBRANCH  13  14
ENDBRANCH   2  13
TORSDOF 6
