REMARK  Name = 
REMARK  13 active torsions:
REMARK  status: ('A' for Active; 'I' for Inactive)
REMARK    1  A    between atoms: C_4  and  N_5
REMARK    2  A    between atoms: N_5  and  C_6
REMARK    3  A    between atoms: C_6  and  C_7
REMARK    4  A    between atoms: C_7  and  C_9
REMARK    5  A    between atoms: C_10  and  C_11
REMARK    6  A    between atoms: C_12  and  C_13
REMARK    7  A    between atoms: C_14  and  C_15
REMARK    8  A    between atoms: C_16  and  C_17
REMARK    9  A    between atoms: C_17  and  C_19
REMARK   10  A    between atoms: C_19  and  C_20
REMARK   11  A    between atoms: C_22  and  C_23
REMARK   12  A    between atoms: C_24  and  C_25
REMARK   13  A    between atoms: C_25  and  C_26
REMARK                            x       y       z     vdW  Elec       q    Type
REMARK                         _______ _______ _______ _____ _____    ______ ____
ROOT
ATOM      1  C   UNL     1       3.669   0.977   0.159  0.00  0.00    +0.250 C 
ATOM      2  O   UNL     1       4.695   1.640   0.236  0.00  0.00    -0.276 OA
ENDROOT
BRANCH   1   3
ATOM      3  C   UNL     1       3.189   0.025   1.258  0.00  0.00    +0.084 C 
ATOM      4  C   UNL     1       4.079  -0.550   2.095  0.00  0.00    +0.027 C 
BRANCH   3   5
ATOM      5  N   UNL     1       1.799  -0.178   1.380  0.00  0.00    -0.334 N 
ATOM      6  H   UNL     1       1.255   0.496   0.843  0.00  0.00    +0.147 HD
BRANCH   5  10
ATOM      7  C   UNL     1       0.854  -1.954  -0.104  0.00  0.00    +0.053 C 
ATOM      8  C   UNL     1      -0.570  -2.078   0.399  0.00  0.00    -0.027 C 
ATOM      9  C   UNL     1      -0.296  -1.432   1.550  0.00  0.00    -0.009 C 
ATOM     10  C   UNL     1       1.204  -1.489   1.336  0.00  0.00    +0.097 C 
ENDBRANCH   5  10
ENDBRANCH   3   5
BRANCH   4  11
ATOM     11  C   UNL     1       5.523  -0.440   2.079  0.00  0.00    -0.002 C 
ATOM     12  C   UNL     1       6.342  -0.978   2.996  0.00  0.00    -0.027 C 
BRANCH  12  13
ATOM     13  C   UNL     1       7.837  -0.818   2.919  0.00  0.00    +0.024 C 
ATOM     14  C   UNL     1       8.409  -0.126   4.146  0.00  0.00    +0.008 C 
ENDBRANCH  12  13
ENDBRANCH   4  11
ENDBRANCH   1   3
BRANCH   1  15
ATOM     15  C   UNL     1       2.877   1.153  -1.042  0.00  0.00    -0.018 C 
ATOM     16  C   UNL     1       2.157   1.382  -2.105  0.00  0.00    -0.066 C 
BRANCH  16  17
ATOM     17  C   UNL     1       1.318   1.648  -3.344  0.00  0.00    +0.060 C 
ATOM     18  C   UNL     1       0.149   2.302  -3.274  0.00  0.00    +0.009 C 
BRANCH  18  19
ATOM     19  C   UNL     1      -0.670   2.567  -4.442  0.00  0.00    +0.001 C 
ATOM     20  C   UNL     1      -1.841   3.223  -4.400  0.00  0.00    +0.000 C 
BRANCH  20  21
ATOM     21  C   UNL     1      -2.640   3.481  -5.583  0.00  0.00    +0.000 C 
ATOM     22  C   UNL     1      -3.829   4.103  -5.551  0.00  0.00    +0.006 C 
BRANCH  22  23
ATOM     23  C   UNL     1      -4.642   4.373  -6.730  0.00  0.00    -0.021 C 
ATOM     24  C   UNL     1      -4.164   5.122  -7.738  0.00  0.00    +0.015 C 
BRANCH  23  25
ATOM     25  C   UNL     1      -6.036   3.771  -6.769  0.00  0.00    +0.192 C 
ATOM     26  C   UNL     1      -6.950   4.235  -5.643  0.00  0.00    +0.049 C 
ATOM     27  F   UNL     1      -6.668   4.087  -7.943  0.00  0.00    -0.241 F 
ENDBRANCH  23  25
ENDBRANCH  22  23
ENDBRANCH  20  21
ENDBRANCH  18  19
ENDBRANCH  16  17
ENDBRANCH   1  15
TORSDOF 11
