REMARK  Name = 
REMARK  13 active torsions:
REMARK  status: ('A' for Active; 'I' for Inactive)
REMARK    1  A    between atoms: C_1  and  C_2
REMARK    2  A    between atoms: C_3  and  C_4
REMARK    3  A    between atoms: C_4  and  C_6
REMARK    4  A    between atoms: C_7  and  C_8
REMARK    5  A    between atoms: C_14  and  C_15
REMARK    6  A    between atoms: C_15  and  C_16
REMARK    7  A    between atoms: C_16  and  C_17
REMARK    8  A    between atoms: C_20  and  C_22
REMARK    9  A    between atoms: C_22  and  C_23
REMARK   10  A    between atoms: C_23  and  C_24
REMARK   11  A    between atoms: C_24  and  C_26
REMARK   12  A    between atoms: C_26  and  C_27
REMARK   13  A    between atoms: C_27  and  C_28
REMARK                            x       y       z     vdW  Elec       q    Type
REMARK                         _______ _______ _______ _____ _____    ______ ____
ROOT
ATOM      1  C   UNL     1       4.981   4.383   4.555  0.00  0.00    +0.036 C 
ENDROOT
BRANCH   1  10
ATOM      2  C   UNL     1       4.520   5.010   0.162  0.00  0.00    +0.049 C 
ATOM      3  C   UNL     1       4.358   3.422   0.238  0.00  0.00    +0.027 C 
ATOM      4  C   UNL     1       4.400   2.803  -1.161  0.00  0.00    +0.013 C 
ATOM      5  C   UNL     1       5.236   5.569   1.407  0.00  0.00    -0.010 C 
ATOM      6  C   UNL     1       6.007   4.730   2.152  0.00  0.00    -0.025 C 
ATOM      7  C   UNL     1       6.540   3.635   1.262  0.00  0.00    +0.011 C 
ATOM      8  C   UNL     1       5.464   2.814   1.152  0.00  0.00    -0.043 C 
ATOM      9  C   UNL     1       4.955   2.753   2.549  0.00  0.00    +0.008 C 
ATOM     10  C   UNL     1       5.241   3.925   3.154  0.00  0.00    -0.040 C 
BRANCH   2  11
ATOM     11  C   UNL     1       3.207   5.749  -0.109  0.00  0.00    -0.047 C 
ATOM     12  C   UNL     1       3.100   6.549  -1.185  0.00  0.00    +0.013 C 
BRANCH  11  15
ATOM     13  C   UNL     1      -0.238   5.421   1.625  0.00  0.00    +0.035 C 
ATOM     14  C   UNL     1       0.820   5.677   0.601  0.00  0.00    -0.030 C 
ATOM     15  C   UNL     1       2.133   5.598   0.867  0.00  0.00    -0.001 C 
ENDBRANCH  11  15
ENDBRANCH   2  11
ENDBRANCH   1  10
BRANCH   1  16
ATOM     16  C   UNL     1       4.970   3.287   5.637  0.00  0.00    +0.008 C 
BRANCH  16  17
ATOM     17  C   UNL     1       6.332   2.604   5.775  0.00  0.00    -0.007 C 
ATOM     18  C   UNL     1       6.449   1.511   6.867  0.00  0.00    +0.008 C 
ATOM     19  C   UNL     1       7.690   2.154   7.366  0.00  0.00    -0.004 C 
ATOM     20  C   UNL     1       8.814   2.837   6.651  0.00  0.00    -0.004 C 
ATOM     21  C   UNL     1       7.419   3.342   6.486  0.00  0.00    -0.001 C 
BRANCH  20  22
ATOM     22  C   UNL     1       9.559   2.160   5.543  0.00  0.00    +0.011 C 
BRANCH  22  23
ATOM     23  C   UNL     1      10.637   3.086   4.979  0.00  0.00    +0.074 C 
BRANCH  23  24
ATOM     24  C   UNL     1      11.420   2.414   3.872  0.00  0.00    +0.134 C 
ATOM     25  O   UNL     1      11.662   1.206   3.890  0.00  0.00    -0.297 OA
BRANCH  24  26
ATOM     26  C   UNL     1      11.984   3.306   2.784  0.00  0.00    +0.081 C 
BRANCH  26  27
ATOM     27  C   UNL     1      12.065   2.536   1.473  0.00  0.00    +0.078 C 
BRANCH  27  28
ATOM     28  C   UNL     1      10.704   2.056   1.052  0.00  0.00    +0.223 C 
ATOM     29  O   UNL     1       9.669   2.664   1.327  0.00  0.00    -0.301 OA
ENDBRANCH  27  28
ENDBRANCH  26  27
ENDBRANCH  24  26
ENDBRANCH  23  24
ENDBRANCH  22  23
ENDBRANCH  20  22
ENDBRANCH  16  17
ENDBRANCH   1  16
TORSDOF 11
