REMARK  Name = 
REMARK  11 active torsions:
REMARK  status: ('A' for Active; 'I' for Inactive)
REMARK    1  A    between atoms: C_3  and  C_13
REMARK    2  A    between atoms: C_5  and  C_6
REMARK    3  A    between atoms: C_6  and  C_7
REMARK    4  A    between atoms: C_7  and  C_8
REMARK    5  A    between atoms: C_7  and  N_12
REMARK    6  A    between atoms: N_9  and  C_10
REMARK    7  A    between atoms: C_14  and  C_15
REMARK    8  A    between atoms: C_20  and  C_21
REMARK    9  A    between atoms: C_22  and  C_23
REMARK   10  A    between atoms: N_24  and  C_25
REMARK   11  A    between atoms: C_26  and  C_27
REMARK                            x       y       z     vdW  Elec       q    Type
REMARK                         _______ _______ _______ _____ _____    ______ ____
ROOT
ATOM      1  C   UNL     1       0.178  -2.275   1.185  0.00  0.00    -0.015 C 
ATOM      2  C   UNL     1       1.184  -3.142   1.386  0.00  0.00    +0.006 C 
ENDROOT
BRANCH   2   3
ATOM      3  C   UNL     1       1.238  -3.996   2.578  0.00  0.00    -0.010 A 
ATOM      4  C   UNL     1       0.602  -5.244   2.534  0.00  0.00    +0.009 A 
ATOM      5  C   UNL     1       0.635  -6.093   3.641  0.00  0.00    +0.001 A 
ATOM      6  C   UNL     1       1.300  -5.702   4.800  0.00  0.00    +0.001 A 
ATOM      7  C   UNL     1       1.932  -4.458   4.859  0.00  0.00    +0.017 A 
ATOM      8  C   UNL     1       1.903  -3.598   3.755  0.00  0.00    +0.032 A 
BRANCH   8   9
ATOM      9  C   UNL     1       2.549  -2.319   3.857  0.00  0.00    -0.060 C 
ATOM     10  C   UNL     1       3.062  -1.232   3.907  0.00  0.00    -0.049 C 
BRANCH  10  11
ATOM     11  C   UNL     1       3.634   0.083   3.891  0.00  0.00    +0.170 C 
ATOM     12  N   UNL     1       4.278   0.370   4.965  0.00  0.00    -0.254 NA
BRANCH  12  13
ATOM     13  C   UNL     1       4.842   1.620   4.997  0.00  0.00    +0.111 C 
ATOM     14  C   UNL     1       5.545   2.049   6.054  0.00  0.00    +0.019 C 
BRANCH  14  15
ATOM     15  C   UNL     1       6.152   3.357   6.130  0.00  0.00    -0.006 C 
ATOM     16  C   UNL     1       6.855   3.773   7.190  0.00  0.00    +0.008 C 
ENDBRANCH  14  15
ENDBRANCH  12  13
ENDBRANCH  10  11
ENDBRANCH   8   9
ENDBRANCH   2   3
BRANCH   1  19
ATOM     17  C   UNL     1      -1.012   0.727   0.149  0.00  0.00    -0.000 C 
ATOM     18  C   UNL     1       0.114   0.113   0.545  0.00  0.00    -0.015 C 
ATOM     19  C   UNL     1       0.135  -1.306   0.041  0.00  0.00    +0.057 C 
ATOM     20  C   UNL     1      -1.157  -1.365  -0.730  0.00  0.00    -0.012 C 
ATOM     21  C   UNL     1      -1.785  -0.177  -0.675  0.00  0.00    -0.049 C 
BRANCH  21  22
ATOM     22  C   UNL     1      -3.061   0.215  -1.355  0.00  0.00    +0.059 C 
BRANCH  22  23
ATOM     23  C   UNL     1      -2.947   1.485  -2.216  0.00  0.00    +0.097 C 
BRANCH  23  24
ATOM     24  N   UNL     1      -4.261   1.829  -2.803  0.00  0.00    -0.323 NA
ATOM     25  H   UNL     1      -4.456   1.104  -3.505  0.00  0.00    +0.119 HD
ATOM     26  H   UNL     1      -4.138   2.665  -3.377  0.00  0.00    +0.119 HD
ENDBRANCH  23  24
BRANCH  23  27
ATOM     27  C   UNL     1      -1.942   1.286  -3.349  0.00  0.00    +0.102 C 
ATOM     28  N   UNL     1      -2.342   0.896  -4.517  0.00  0.00    -0.267 NA
BRANCH  28  29
ATOM     29  C   UNL     1      -1.385   0.747  -5.480  0.00  0.00    +0.102 C 
ATOM     30  C   UNL     1      -1.711   0.275  -6.684  0.00  0.00    +0.029 C 
ENDBRANCH  28  29
ENDBRANCH  23  27
ENDBRANCH  22  23
ENDBRANCH  21  22
ENDBRANCH   1  19
TORSDOF 11
