REMARK  Name = 
REMARK  3 active torsions:
REMARK  status: ('A' for Active; 'I' for Inactive)
REMARK    1  A    between atoms: C_3  and  C_4
REMARK    2  A    between atoms: C_5  and  N_6
REMARK    3  A    between atoms: N_6  and  C_7
REMARK                            x       y       z     vdW  Elec       q    Type
REMARK                         _______ _______ _______ _____ _____    ______ ____
ROOT
ATOM      1  C   UNL     1      -1.516  -0.898  -1.234  0.00  0.00    +0.021 C 
ATOM      2  C   UNL     1      -2.851  -0.950  -1.321  0.00  0.00    +0.065 C 
ENDROOT
BRANCH   1   5
ATOM      3  C   UNL     1      -0.571   1.026   0.159  0.00  0.00    +0.196 C 
ATOM      4  O   UNL     1       0.530   0.175  -0.179  0.00  0.00    -0.367 OA
ATOM      5  C   UNL     1      -0.756  -0.455  -0.062  0.00  0.00    +0.168 C 
ENDBRANCH   1   5
BRANCH   2   6
ATOM      6  N   UNL     1      -3.584  -1.365  -2.397  0.00  0.00    -0.353 N 
ATOM      7  C   UNL     1      -5.024  -1.414  -2.480  0.00  0.00    +0.125 C 
ATOM      8  H   UNL     1      -3.066  -1.686  -3.210  0.00  0.00    +0.145 HD
ENDBRANCH   2   6
TORSDOF 2
