REMARK  Name = 
REMARK  3 active torsions:
REMARK  status: ('A' for Active; 'I' for Inactive)
REMARK    1  A    between atoms: C_5  and  C_6
REMARK    2  A    between atoms: C_6  and  C_7
REMARK    3  A    between atoms: C_7  and  C_8
REMARK                            x       y       z     vdW  Elec       q    Type
REMARK                         _______ _______ _______ _____ _____    ______ ____
ROOT
ATOM      1  C   UNL     1       1.088   1.367   0.345  0.00  0.00    +0.050 C 
ATOM      2  N   UNL     1       1.582   0.144   0.752  0.00  0.00    -0.341 N 
ATOM      3  C   UNL     1       1.190  -1.047   0.020  0.00  0.00    +0.102 C 
ATOM      4  C   UNL     1      -0.332  -1.099  -0.056  0.00  0.00    +0.023 C 
ATOM      5  C   UNL     1      -0.945   0.121  -0.786  0.00  0.00    +0.000 C 
ATOM      6  C   UNL     1      -0.126   1.416  -0.593  0.00  0.00    +0.049 C 
ATOM      7  C   UNL     1       0.598   1.939  -1.877  0.00  0.00    +0.046 C 
ATOM      8  C   UNL     1       1.723   2.747  -1.249  0.00  0.00    +0.026 C 
ATOM      9  C   UNL     1       1.921   2.278  -0.052  0.00  0.00    -0.105 C 
ATOM     10  H   UNL     1       2.587   0.186   0.915  0.00  0.00    +0.146 HD
ENDROOT
BRANCH   5  11
ATOM     11  C   UNL     1      -2.414   0.273  -0.294  0.00  0.00    +0.011 C 
BRANCH  11  12
ATOM     12  C   UNL     1      -3.232   1.403  -0.916  0.00  0.00    +0.071 C 
BRANCH  12  13
ATOM     13  C   UNL     1      -3.404   1.220  -2.397  0.00  0.00    +0.223 C 
ATOM     14  O   UNL     1      -2.677   1.756  -3.227  0.00  0.00    -0.301 OA
ENDBRANCH  12  13
ENDBRANCH  11  12
ENDBRANCH   5  11
TORSDOF 3
