REMARK  Name = 
REMARK  1 active torsions:
REMARK  status: ('A' for Active; 'I' for Inactive)
REMARK    1  A    between atoms: C_5  and  N_6
REMARK                            x       y       z     vdW  Elec       q    Type
REMARK                         _______ _______ _______ _____ _____    ______ ____
ROOT
ATOM      1  C   UNL     1      -0.343   1.226   0.063  0.00  0.00    +0.070 C 
ATOM      2  C   UNL     1      -1.239  -0.013  -0.146  0.00  0.00    +0.107 C 
ATOM      3  N   UNL     1      -0.299  -1.132  -0.244  0.00  0.00    -0.348 N 
ATOM      4  C   UNL     1       0.988  -0.669  -0.114  0.00  0.00    +0.086 C 
ATOM      5  C   UNL     1       1.056   0.661   0.014  0.00  0.00    +0.016 C 
ATOM      6  H   UNL     1      -0.502  -1.940   0.341  0.00  0.00    +0.146 HD
ENDROOT
BRANCH   5   7
ATOM      7  N   UNL     1       2.159   1.466   0.117  0.00  0.00    -0.360 N 
ATOM      8  H   UNL     1       3.002   1.028  -0.249  0.00  0.00    +0.142 HD
ATOM      9  H   UNL     1       2.012   2.395  -0.270  0.00  0.00    +0.142 HD
ENDBRANCH   5   7
TORSDOF 1
