REMARK  Name = 
REMARK  8 active torsions:
REMARK  status: ('A' for Active; 'I' for Inactive)
REMARK    1  A    between atoms: C_5  and  C_6
REMARK    2  A    between atoms: C_6  and  C_7
REMARK    3  A    between atoms: C_6  and  C_8
REMARK    4  A    between atoms: C_8  and  N_9
REMARK    5  A    between atoms: N_9  and  C_10
REMARK    6  A    between atoms: C_11  and  C_12
REMARK    7  A    between atoms: C_13  and  C_14
REMARK    8  A    between atoms: C_15  and  C_16
REMARK                            x       y       z     vdW  Elec       q    Type
REMARK                         _______ _______ _______ _____ _____    ______ ____
ROOT
ATOM      1  N   UNL     1       4.491   2.279  -0.270  0.00  0.00    -0.349 N 
ATOM      2  H   UNL     1       4.449   3.045   0.401  0.00  0.00    +0.146 HD
ENDROOT
BRANCH   1   3
ATOM      3  C   UNL     1       5.740   2.018  -0.778  0.00  0.00    +0.067 C 
ATOM      4  C   UNL     1       5.981   1.593  -2.019  0.00  0.00    +0.015 C 
BRANCH   4   5
ATOM      5  C   UNL     1       7.303   1.382  -2.570  0.00  0.00    +0.001 C 
ATOM      6  C   UNL     1       7.506   1.025  -3.844  0.00  0.00    +0.000 C 
BRANCH   6   7
ATOM      7  C   UNL     1       8.819   0.799  -4.402  0.00  0.00    -0.000 C 
ATOM      8  C   UNL     1       9.015   0.431  -5.679  0.00  0.00    -0.001 C 
BRANCH   8   9
ATOM      9  C   UNL     1      10.328   0.190  -6.235  0.00  0.00    -0.008 C 
ATOM     10  C   UNL     1      10.523  -0.183  -7.506  0.00  0.00    +0.008 C 
ENDBRANCH   8   9
ENDBRANCH   6   7
ENDBRANCH   4   5
ENDBRANCH   1   3
BRANCH   1  11
ATOM     11  C   UNL     1       3.459   1.263  -0.093  0.00  0.00    +0.108 C 
BRANCH  11  12
ATOM     12  C   UNL     1       2.050   1.900  -0.080  0.00  0.00    +0.032 C 
ATOM     13  C   UNL     1       1.760   2.529  -1.453  0.00  0.00    +0.014 C 
BRANCH  12  18
ATOM     14  C   UNL     1       2.089   2.550   2.481  0.00  0.00    +0.075 C 
ATOM     15  C   UNL     1       1.590   3.819   3.178  0.00  0.00    +0.232 C 
ATOM     16  O   UNL     1       1.380   4.835   2.180  0.00  0.00    -0.499 OA
ATOM     17  C   UNL     1       1.463   4.153   0.992  0.00  0.00    +0.186 C 
ATOM     18  C   UNL     1       1.847   2.879   1.055  0.00  0.00    -0.028 C 
ENDBRANCH  12  18
ENDBRANCH  11  12
ENDBRANCH   1  11
TORSDOF 7
