REMARK  Name = 
REMARK  2 active torsions:
REMARK  status: ('A' for Active; 'I' for Inactive)
REMARK    1  A    between atoms: C_2  and  C_3
REMARK    2  A    between atoms: C_3  and  C_4
REMARK                            x       y       z     vdW  Elec       q    Type
REMARK                         _______ _______ _______ _____ _____    ______ ____
ROOT
ATOM      1  C   UNL     1       3.050   1.080   0.639  0.00  0.00    +0.097 C 
ENDROOT
BRANCH   1   3
ATOM      2  C   UNL     1       1.393   0.197  -1.028  0.00  0.00    +0.004 C 
ATOM      3  C   UNL     1       2.256  -0.004  -0.024  0.00  0.00    -0.027 C 
ENDBRANCH   1   3
BRANCH   1   4
ATOM      4  C   UNL     1       4.547   0.865   0.518  0.00  0.00    +0.227 C 
ATOM      5  O   UNL     1       5.092  -0.108   0.005  0.00  0.00    -0.301 OA
ENDBRANCH   1   4
TORSDOF 2
