REMARK  Name = 
REMARK  1 active torsions:
REMARK  status: ('A' for Active; 'I' for Inactive)
REMARK    1  A    between atoms: C_5  and  N_6
REMARK                            x       y       z     vdW  Elec       q    Type
REMARK                         _______ _______ _______ _____ _____    ______ ____
ROOT
ATOM      1  C   UNL     1      -0.012   1.295  -0.037  0.00  0.00    +0.077 C 
ATOM      2  C   UNL     1       1.145   0.339   0.020  0.00  0.00    -0.021 C 
ATOM      3  C   UNL     1       0.689  -0.922   0.029  0.00  0.00    -0.002 C 
ATOM      4  C   UNL     1      -0.753  -0.910  -0.028  0.00  0.00    +0.018 C 
ATOM      5  C   UNL     1      -1.198   0.354  -0.085  0.00  0.00    +0.005 C 
ENDROOT
BRANCH   5   6
ATOM      6  N   UNL     1      -2.485   0.807  -0.183  0.00  0.00    -0.361 N 
ATOM      7  H   UNL     1      -3.185   0.135   0.117  0.00  0.00    +0.142 HD
ATOM      8  H   UNL     1      -2.631   1.739   0.195  0.00  0.00    +0.142 HD
ENDBRANCH   5   6
TORSDOF 1
