REMARK  Name = 
REMARK  8 active torsions:
REMARK  status: ('A' for Active; 'I' for Inactive)
REMARK    1  A    between atoms: C_1  and  N_2
REMARK    2  A    between atoms: N_2  and  C_3
REMARK    3  A    between atoms: C_5  and  C_6
REMARK    4  A    between atoms: C_5  and  C_11
REMARK    5  A    between atoms: C_6  and  C_7
REMARK    6  A    between atoms: C_7  and  C_8
REMARK    7  A    between atoms: C_12  and  N_13
REMARK    8  A    between atoms: N_13  and  C_14
REMARK                            x       y       z     vdW  Elec       q    Type
REMARK                         _______ _______ _______ _____ _____    ______ ____
ROOT
ATOM      1  C   UNL     1       3.394  -0.392   1.017  0.00  0.00    +0.024 C 
ATOM      2  C   UNL     1       4.573  -0.993   0.936  0.00  0.00    +0.018 C 
ATOM      3  C   UNL     1       4.605   0.422   1.249  0.00  0.00    +0.091 C 
ENDROOT
BRANCH   1   5
ATOM      4  C   UNL     1       1.357  -1.336  -0.009  0.00  0.00    +0.125 C 
ATOM      5  N   UNL     1       2.426  -0.354   0.044  0.00  0.00    -0.349 N 
ATOM      6  H   UNL     1       2.824  -0.286  -0.885  0.00  0.00    +0.145 HD
ENDBRANCH   1   5
BRANCH   3   7
ATOM      7  C   UNL     1       4.996   0.853   2.589  0.00  0.00    -0.065 C 
ATOM      8  C   UNL     1       5.332   1.199   3.688  0.00  0.00    +0.001 C 
BRANCH   8   9
ATOM      9  N   UNL     1       5.721   1.661   5.012  0.00  0.00    -0.274 N 
ATOM     10  H   UNL     1       6.347   2.459   5.066  0.00  0.00    +0.162 HD
BRANCH   9  11
ATOM     11  C   UNL     1       5.833   0.794   6.117  0.00  0.00    +0.038 A 
ATOM     12  C   UNL     1       5.527  -0.571   6.060  0.00  0.00    +0.024 A 
ATOM     13  C   UNL     1       5.579  -1.370   7.209  0.00  0.00    +0.002 A 
ATOM     14  C   UNL     1       5.908  -0.808   8.441  0.00  0.00    +0.000 A 
ATOM     15  C   UNL     1       6.187   0.552   8.524  0.00  0.00    +0.002 A 
ATOM     16  C   UNL     1       6.145   1.344   7.372  0.00  0.00    +0.024 A 
ENDBRANCH   9  11
ENDBRANCH   8   9
ENDBRANCH   3   7
BRANCH   3  17
ATOM     17  C   UNL     1       5.222   1.336   0.158  0.00  0.00    +0.034 C 
BRANCH  17  18
ATOM     18  C   UNL     1       4.512   1.378  -1.198  0.00  0.00    +0.038 C 
BRANCH  18  19
ATOM     19  C   UNL     1       5.152   2.244  -2.244  0.00  0.00    +0.024 C 
ATOM     20  C   UNL     1       5.483   1.793  -3.420  0.00  0.00    -0.132 C 
ATOM     21  C   UNL     1       5.772   1.275  -4.574  0.00  0.00    +0.068 C 
ENDBRANCH  18  19
ENDBRANCH  17  18
ENDBRANCH   3  17
TORSDOF 7
