REMARK  Name = 
REMARK  11 active torsions:
REMARK  status: ('A' for Active; 'I' for Inactive)
REMARK    1  A    between atoms: C_1  and  N_2
REMARK    2  A    between atoms: C_3  and  C_5
REMARK    3  A    between atoms: C_5  and  C_6
REMARK    4  A    between atoms: C_6  and  N_7
REMARK    5  A    between atoms: N_7  and  C_8
REMARK    6  A    between atoms: N_7  and  C_17
REMARK    7  A    between atoms: C_9  and  N_10
REMARK    8  A    between atoms: C_17  and  N_18
REMARK    9  A    between atoms: N_18  and  C_19
REMARK   10  A    between atoms: C_19  and  C_20
REMARK   11  A    between atoms: C_20  and  C_21
REMARK                            x       y       z     vdW  Elec       q    Type
REMARK                         _______ _______ _______ _____ _____    ______ ____
ROOT
ATOM      1  N   UNL     1       6.741  -2.661  -0.172  0.00  0.00    -0.321 N 
ENDROOT
BRANCH   1   2
ATOM      2  C   UNL     1       7.451  -1.448  -0.171  0.00  0.00    +0.091 C 
ATOM      3  C   UNL     1       8.781  -1.276  -0.221  0.00  0.00    +0.126 C 
BRANCH   3   4
ATOM      4  N   UNL     1       9.442  -0.084  -0.094  0.00  0.00    -0.258 NA
ATOM      5  C   UNL     1      10.579  -0.087   0.545  0.00  0.00    +0.048 C 
ATOM      6  C   UNL     1      11.382   1.188   0.530  0.00  0.00    +0.102 C 
ATOM      7  C   UNL     1      12.714   1.089   1.212  0.00  0.00    +0.089 C 
ATOM      8  N   UNL     1      13.182   0.038   1.804  0.00  0.00    -0.267 NA
ATOM      9  C   UNL     1      12.398  -1.078   1.833  0.00  0.00    +0.112 C 
ATOM     10  C   UNL     1      11.187  -1.226   1.291  0.00  0.00    +0.043 C 
ENDBRANCH   3   4
ENDBRANCH   1   2
BRANCH   1  11
ATOM     11  C   UNL     1       5.250  -2.691  -0.247  0.00  0.00    +0.113 C 
BRANCH  11  12
ATOM     12  C   UNL     1       4.597  -3.601   0.799  0.00  0.00    +0.089 C 
BRANCH  12  15
ATOM     13  C   UNL     1       6.248  -1.970   3.894  0.00  0.00    +0.126 C 
ATOM     14  N   UNL     1       5.908  -2.514   2.611  0.00  0.00    -0.336 N 
ATOM     15  C   UNL     1       4.754  -3.141   2.244  0.00  0.00    +0.088 C 
ATOM     16  N   UNL     1       3.798  -3.430   3.062  0.00  0.00    -0.289 NA
ATOM     17  H   UNL     1       6.576  -2.339   1.860  0.00  0.00    +0.147 HD
ATOM     18  H   UNL     1       4.043  -3.103   3.997  0.00  0.00    +0.188 HD
ENDBRANCH  12  15
ENDBRANCH  11  12
ENDBRANCH   1  11
BRANCH   1  19
ATOM     19  C   UNL     1       7.379  -3.962  -0.424  0.00  0.00    +0.189 C 
BRANCH  19  20
ATOM     20  N   UNL     1       7.151  -4.577  -1.719  0.00  0.00    -0.301 NA
ATOM     21  H   UNL     1       7.426  -3.900  -2.428  0.00  0.00    +0.123 HD
BRANCH  20  22
ATOM     22  C   UNL     1       7.912  -5.812  -1.869  0.00  0.00    +0.082 C 
BRANCH  22  23
ATOM     23  C   UNL     1       7.582  -6.429  -3.225  0.00  0.00    +0.012 C 
ATOM     24  C   UNL     1       8.325  -7.736  -3.442  0.00  0.00    +0.005 C 
ENDBRANCH  22  23
ENDBRANCH  20  22
ENDBRANCH  19  20
ENDBRANCH   1  19
TORSDOF 9
