REMARK  Name = 
REMARK  15 active torsions:
REMARK  status: ('A' for Active; 'I' for Inactive)
REMARK    1  A    between atoms: C_1  and  C_2
REMARK    2  A    between atoms: C_3  and  C_4
REMARK    3  A    between atoms: C_7  and  C_8
REMARK    4  A    between atoms: N_10  and  C_22
REMARK    5  A    between atoms: C_20  and  C_21
REMARK    6  A    between atoms: C_22  and  C_23
REMARK    7  A    between atoms: C_23  and  C_24
REMARK    8  A    between atoms: C_24  and  C_25
REMARK    9  A    between atoms: C_26  and  C_27
REMARK   10  A    between atoms: C_26  and  C_28
REMARK   11  A    between atoms: C_28  and  C_29
REMARK   12  A    between atoms: C_29  and  C_30
REMARK   13  A    between atoms: C_30  and  C_31
REMARK   14  A    between atoms: C_31  and  C_32
REMARK   15  A    between atoms: C_32  and  C_33
REMARK                            x       y       z     vdW  Elec       q    Type
REMARK                         _______ _______ _______ _____ _____    ______ ____
ROOT
ATOM      1  C   UNL     1       4.969  -0.357   1.960  0.00  0.00    +0.018 C 
ATOM      2  C   UNL     1       6.078  -1.129   1.792  0.00  0.00    +0.011 C 
ATOM      3  C   UNL     1       7.578  -0.635   2.050  0.00  0.00    +0.062 C 
ATOM      4  C   UNL     1       8.411  -0.100   0.807  0.00  0.00    +0.042 C 
ATOM      5  N   UNL     1       6.016  -2.250   0.906  0.00  0.00    -0.310 N 
ATOM      6  C   UNL     1       6.376  -1.744  -0.484  0.00  0.00    +0.075 C 
ATOM      7  C   UNL     1       6.032  -1.126  -1.656  0.00  0.00    +0.025 C 
ATOM      8  C   UNL     1       6.893   0.211  -2.070  0.00  0.00    +0.002 A 
ATOM      9  C   UNL     1       6.322   1.499  -2.057  0.00  0.00    +0.011 A 
ATOM     10  C   UNL     1       7.097   2.675  -2.257  0.00  0.00    +0.020 A 
ATOM     11  C   UNL     1       8.445   2.560  -2.542  0.00  0.00    +0.111 A 
ATOM     12  N   UNL     1       9.058   1.377  -2.526  0.00  0.00    -0.255 NA
ATOM     13  C   UNL     1       8.297   0.278  -2.201  0.00  0.00    +0.071 A 
ATOM     14  C   UNL     1       9.120  -0.763  -1.640  0.00  0.00    +0.028 C 
ATOM     15  C   UNL     1       9.213  -0.986  -0.291  0.00  0.00    -0.063 C 
ATOM     16  C   UNL     1       9.825  -2.356  -0.055  0.00  0.00    +0.040 C 
ENDROOT
BRANCH   1  19
ATOM     17  C   UNL     1       1.147  -0.093   1.187  0.00  0.00    +0.035 C 
ATOM     18  C   UNL     1       2.611   0.184   1.401  0.00  0.00    -0.030 C 
ATOM     19  C   UNL     1       3.589  -0.725   1.594  0.00  0.00    -0.003 C 
ENDBRANCH   1  19
BRANCH   4  20
ATOM     20  C   UNL     1       8.842   1.347   1.073  0.00  0.00    -0.026 C 
ATOM     21  C   UNL     1      10.025   1.895   1.182  0.00  0.00    +0.004 C 
ENDBRANCH   4  20
BRANCH   5  22
ATOM     22  C   UNL     1       6.700  -3.499   1.532  0.00  0.00    +0.110 C 
BRANCH  22  23
ATOM     23  C   UNL     1       6.867  -3.617   3.127  0.00  0.00    +0.023 C 
BRANCH  23  24
ATOM     24  C   UNL     1       5.736  -4.131   4.043  0.00  0.00    +0.028 C 
BRANCH  24  25
ATOM     25  C   UNL     1       6.183  -4.239   5.514  0.00  0.00    -0.028 C 
ATOM     26  C   UNL     1       6.615  -5.319   6.219  0.00  0.00    -0.077 C 
ATOM     27  C   UNL     1       6.752  -6.695   5.631  0.00  0.00    +0.039 C 
BRANCH  26  28
ATOM     28  C   UNL     1       6.971  -5.250   7.712  0.00  0.00    +0.030 C 
BRANCH  28  29
ATOM     29  C   UNL     1       8.400  -5.689   8.094  0.00  0.00    +0.004 C 
BRANCH  29  30
ATOM     30  C   UNL     1       9.502  -4.831   7.466  0.00  0.00    +0.001 C 
BRANCH  30  31
ATOM     31  C   UNL     1      10.892  -5.371   7.823  0.00  0.00    +0.004 C 
BRANCH  31  32
ATOM     32  C   UNL     1      12.002  -4.541   7.174  0.00  0.00    +0.026 C 
BRANCH  32  33
ATOM     33  C   UNL     1      13.361  -5.091   7.506  0.00  0.00    -0.034 C 
ATOM     34  C   UNL     1      14.305  -4.411   8.169  0.00  0.00    +0.004 C 
ENDBRANCH  32  33
ENDBRANCH  31  32
ENDBRANCH  30  31
ENDBRANCH  29  30
ENDBRANCH  28  29
ENDBRANCH  26  28
ENDBRANCH  24  25
ENDBRANCH  23  24
ENDBRANCH  22  23
ENDBRANCH   5  22
TORSDOF 12
