REMARK  Name = 
REMARK  1 active torsions:
REMARK  status: ('A' for Active; 'I' for Inactive)
REMARK    1  A    between atoms: C_2  and  C_3
REMARK                            x       y       z     vdW  Elec       q    Type
REMARK                         _______ _______ _______ _____ _____    ______ ____
ROOT
ATOM      1  C   UNL     1       2.091  -0.606   0.400  0.00  0.00    +0.041 C 
ATOM      2  C   UNL     1       2.698   0.616  -0.379  0.00  0.00    -0.021 C 
ATOM      3  C   UNL     1       2.889   0.120  -1.844  0.00  0.00    +0.012 C 
ATOM      4  C   UNL     1       1.711   1.850  -0.324  0.00  0.00    +0.056 C 
ATOM      5  C   UNL     1       0.369   1.800   0.527  0.00  0.00    +0.197 C 
ATOM      6  O   UNL     1       0.541   1.472   1.925  0.00  0.00    -0.484 OA
ATOM      7  C   UNL     1      -0.597   0.886  -0.145  0.00  0.00    +0.017 C 
ATOM      8  C   UNL     1      -0.404  -0.412  -0.429  0.00  0.00    +0.002 C 
ATOM      9  C   UNL     1       0.804  -1.198  -0.203  0.00  0.00    -0.054 C 
ATOM     10  C   UNL     1       0.777  -2.489  -0.594  0.00  0.00    +0.012 C 
ATOM     11  C   UNL     1       4.211   0.919   0.097  0.00  0.00    +0.034 C 
ATOM     12  C   UNL     1       4.831   2.312   0.301  0.00  0.00    -0.026 C 
ATOM     13  C   UNL     1       4.743   3.031   1.441  0.00  0.00    -0.004 C 
ATOM     14  C   UNL     1       3.770   2.622   2.406  0.00  0.00    -0.000 C 
ATOM     15  C   UNL     1       3.442   2.967   3.652  0.00  0.00    +0.000 C 
ATOM     16  C   UNL     1       2.236   2.283   4.098  0.00  0.00    +0.001 C 
ATOM     17  C   UNL     1       1.110   2.940   4.390  0.00  0.00    +0.011 C 
ATOM     18  C   UNL     1      -0.200   2.338   4.070  0.00  0.00    +0.017 A 
ATOM     19  C   UNL     1      -0.485   1.680   2.838  0.00  0.00    +0.128 A 
ATOM     20  C   UNL     1      -1.766   1.134   2.669  0.00  0.00    +0.046 A 
ATOM     21  C   UNL     1      -2.764   1.311   3.634  0.00  0.00    +0.004 A 
ATOM     22  C   UNL     1      -2.500   2.014   4.804  0.00  0.00    +0.001 A 
ATOM     23  C   UNL     1      -1.221   2.521   5.021  0.00  0.00    +0.011 A 
ENDROOT
TORSDOF 0
