REMARK  Name = 
REMARK  0 active torsions:
REMARK  status: ('A' for Active; 'I' for Inactive)
REMARK                            x       y       z     vdW  Elec       q    Type
REMARK                         _______ _______ _______ _____ _____    ______ ____
ROOT
ATOM      1  C   UNL     1      -1.801  -0.507  -0.566  0.00  0.00    +0.151 C 
ATOM      2  N   UNL     1      -1.635   0.334   0.623  0.00  0.00    -0.339 N 
ATOM      3  C   UNL     1      -0.678   1.302   0.873  0.00  0.00    +0.020 C 
ATOM      4  C   UNL     1      -0.433   1.748   2.110  0.00  0.00    +0.033 C 
ATOM      5  C   UNL     1       0.178   1.731  -0.222  0.00  0.00    +0.023 C 
ATOM      6  C   UNL     1       1.369   1.187  -0.528  0.00  0.00    +0.016 C 
ATOM      7  C   UNL     1       1.993   0.094   0.206  0.00  0.00    +0.048 C 
ATOM      8  C   UNL     1       2.817   0.338   1.229  0.00  0.00    +0.092 C 
ATOM      9 CL   UNL     1       3.510  -0.834   2.267  0.00  0.00    -0.091 Cl
ATOM     10  C   UNL     1       1.553  -1.300  -0.144  0.00  0.00    +0.249 C 
ATOM     11  O   UNL     1       2.217  -2.016  -0.878  0.00  0.00    -0.270 OA
ATOM     12  N   UNL     1       0.267  -1.554   0.329  0.00  0.00    -0.284 N 
ATOM     13  C   UNL     1      -0.775  -1.643  -0.596  0.00  0.00    +0.021 C 
ATOM     14  C   UNL     1      -0.820  -2.639  -1.491  0.00  0.00    +0.030 C 
ATOM     15  H   UNL     1      -2.246   0.101   1.399  0.00  0.00    +0.146 HD
ATOM     16  H   UNL     1       0.005  -0.877   1.039  0.00  0.00    +0.155 HD
ENDROOT
TORSDOF 0
