REMARK  Name = 
REMARK  13 active torsions:
REMARK  status: ('A' for Active; 'I' for Inactive)
REMARK    1  A    between atoms: C_1  and  O_2
REMARK    2  A    between atoms: O_2  and  C_3
REMARK    3  A    between atoms: C_6  and  C_9
REMARK    4  A    between atoms: C_9  and  C_10
REMARK    5  A    between atoms: C_10  and  C_11
REMARK    6  A    between atoms: C_10  and  N_21
REMARK    7  A    between atoms: C_11  and  C_12
REMARK    8  A    between atoms: C_12  and  C_13
REMARK    9  A    between atoms: C_13  and  C_14
REMARK   10  A    between atoms: C_15  and  C_16
REMARK   11  A    between atoms: C_17  and  C_18
REMARK   12  A    between atoms: C_18  and  C_20
REMARK   13  A    between atoms: C_26  and  N_27
REMARK                            x       y       z     vdW  Elec       q    Type
REMARK                         _______ _______ _______ _____ _____    ______ ____
ROOT
ATOM      1  C   UNL     1       4.641  -2.408  -5.430  0.00  0.00    +0.079 C 
ENDROOT
BRANCH   1   2
ATOM      2  N   UNL     1       5.331  -3.272  -6.448  0.00  0.00    -0.314 N 
ATOM      3  C   UNL     1       4.998  -3.167  -7.801  0.00  0.00    +0.072 C 
ATOM      4  C   UNL     1       5.749  -3.653  -8.798  0.00  0.00    +0.015 C 
ATOM      5  C   UNL     1       6.978  -4.334  -8.485  0.00  0.00    +0.000 C 
ATOM      6  C   UNL     1       7.283  -4.583  -7.205  0.00  0.00    +0.011 C 
ATOM      7  C   UNL     1       6.405  -4.206  -6.033  0.00  0.00    +0.163 C 
BRANCH   7   8
ATOM      8  N   UNL     1       6.010  -5.475  -5.448  0.00  0.00    -0.309 NA
ATOM      9  H   UNL     1       5.371  -5.886  -6.126  0.00  0.00    +0.120 HD
ATOM     10  H   UNL     1       5.444  -5.303  -4.629  0.00  0.00    +0.120 HD
ENDBRANCH   7   8
ENDBRANCH   1   2
BRANCH   1  11
ATOM     11  C   UNL     1       5.087  -2.653  -3.964  0.00  0.00    +0.057 C 
BRANCH  11  15
ATOM     12  C   UNL     1       2.877  -0.458  -0.970  0.00  0.00    +0.120 A 
ATOM     13  C   UNL     1       2.216  -1.359  -1.806  0.00  0.00    +0.046 A 
ATOM     14  C   UNL     1       2.931  -2.079  -2.763  0.00  0.00    +0.007 A 
ATOM     15  C   UNL     1       4.313  -1.898  -2.909  0.00  0.00    -0.045 A 
ATOM     16  C   UNL     1       4.976  -1.025  -2.039  0.00  0.00    +0.007 A 
ATOM     17  C   UNL     1       4.260  -0.304  -1.086  0.00  0.00    +0.046 A 
BRANCH  12  19
ATOM     18  C   UNL     1       0.987  -0.038   0.394  0.00  0.00    +0.277 C 
ATOM     19  O   UNL     1       2.288   0.343  -0.030  0.00  0.00    -0.495 OA
ENDBRANCH  12  19
ENDBRANCH  11  15
ENDBRANCH   1  11
BRANCH   1  20
ATOM     20  C   UNL     1       4.692  -0.896  -5.815  0.00  0.00    +0.023 C 
BRANCH  20  21
ATOM     21  C   UNL     1       6.038  -0.173  -5.689  0.00  0.00    +0.006 C 
BRANCH  21  22
ATOM     22  C   UNL     1       7.092  -0.652  -6.679  0.00  0.00    +0.028 C 
BRANCH  22  23
ATOM     23  C   UNL     1       8.409   0.004  -6.413  0.00  0.00    -0.018 C 
ATOM     24  C   UNL     1       9.418  -0.698  -5.891  0.00  0.00    +0.056 C 
BRANCH  24  25
ATOM     25  C   UNL     1      10.766  -0.059  -5.598  0.00  0.00    -0.066 C 
ATOM     26  C   UNL     1      11.922   0.489  -5.347  0.00  0.00    -0.024 C 
BRANCH  26  27
ATOM     27  C   UNL     1      13.204   1.104  -5.099  0.00  0.00    +0.203 C 
ATOM     28  O   UNL     1      13.938   1.383  -6.038  0.00  0.00    -0.283 OA
ATOM     29  C   UNL     1      13.565   1.372  -3.667  0.00  0.00    +0.101 C 
ENDBRANCH  26  27
ENDBRANCH  24  25
ENDBRANCH  22  23
ENDBRANCH  21  22
ENDBRANCH  20  21
ENDBRANCH   1  20
TORSDOF 11
