REMARK  Name = 
REMARK  3 active torsions:
REMARK  status: ('A' for Active; 'I' for Inactive)
REMARK    1  A    between atoms: C_5  and  C_6
REMARK    2  A    between atoms: C_7  and  C_8
REMARK    3  A    between atoms: C_8  and  C_9
REMARK                            x       y       z     vdW  Elec       q    Type
REMARK                         _______ _______ _______ _____ _____    ______ ____
ROOT
ATOM      1  C   UNL     1       0.117  -1.266   0.019  0.00  0.00    +0.062 C 
ATOM      2  C   UNL     1       1.181  -0.207   0.004  0.00  0.00    -0.022 C 
ATOM      3  C   UNL     1       0.609   1.006  -0.014  0.00  0.00    -0.004 C 
ATOM      4  C   UNL     1      -0.826   0.860  -0.009  0.00  0.00    +0.003 C 
ATOM      5  C   UNL     1      -1.148  -0.444   0.013  0.00  0.00    -0.044 C 
ENDROOT
BRANCH   5   6
ATOM      6  C   UNL     1      -2.480  -0.984   0.037  0.00  0.00    -0.000 C 
ATOM      7  C   UNL     1      -2.766  -2.296   0.055  0.00  0.00    -0.027 C 
BRANCH   7   8
ATOM      8  C   UNL     1      -4.166  -2.835   0.088  0.00  0.00    +0.024 C 
ATOM      9  C   UNL     1      -4.454  -3.709  -1.123  0.00  0.00    +0.008 C 
ENDBRANCH   7   8
ENDBRANCH   5   6
TORSDOF 2
