REMARK  Name = 
REMARK  7 active torsions:
REMARK  status: ('A' for Active; 'I' for Inactive)
REMARK    1  A    between atoms: C_7  and  C_9
REMARK    2  A    between atoms: C_9  and  C_10
REMARK    3  A    between atoms: C_11  and  C_12
REMARK    4  A    between atoms: C_12  and  C_14
REMARK    5  A    between atoms: C_14  and  N_15
REMARK    6  A    between atoms: N_17  and  C_18
REMARK    7  A    between atoms: C_19  and  C_20
REMARK                            x       y       z     vdW  Elec       q    Type
REMARK                         _______ _______ _______ _____ _____    ______ ____
ROOT
ATOM      1  C   UNL     1       5.144  -5.272  -1.373  0.00  0.00    -0.022 C 
ATOM      2  C   UNL     1       6.457  -5.389  -1.654  0.00  0.00    +0.001 C 
ENDROOT
BRANCH   2   3
ATOM      3  C   UNL     1       7.097  -6.689  -1.855  0.00  0.00    -0.033 C 
ATOM      4  C   UNL     1       7.035  -7.649  -0.917  0.00  0.00    +0.014 C 
BRANCH   3   5
ATOM      5  C   UNL     1       7.734  -6.944  -3.214  0.00  0.00    +0.188 C 
BRANCH   5   6
ATOM      6  N   UNL     1       9.178  -6.663  -3.187  0.00  0.00    -0.220 NA
ATOM      7  C   UNL     1       9.728  -6.910  -4.201  0.00  0.00    +0.095 C 
ATOM      8  N   UNL     1      10.257  -7.143  -5.227  0.00  0.00    -0.195 NA
BRANCH   8   9
ATOM      9  C   UNL     1      11.339  -7.978  -5.116  0.00  0.00    +0.118 C 
ATOM     10  C   UNL     1      12.110  -8.274  -6.178  0.00  0.00    -0.010 C 
ATOM     11  C   UNL     1      13.294  -9.176  -6.142  0.00  0.00    +0.037 C 
ENDBRANCH   8   9
ENDBRANCH   5   6
ENDBRANCH   3   5
ENDBRANCH   2   3
BRANCH   1  12
ATOM     12  C   UNL     1       4.349  -3.991  -1.248  0.00  0.00    +0.062 C 
BRANCH  12  19
ATOM     13  C   UNL     1       1.892  -4.694  -4.415  0.00  0.00    +0.031 C 
ATOM     14  C   UNL     1       0.590  -3.837  -4.527  0.00  0.00    +0.031 C 
ATOM     15  C   UNL     1       0.799  -2.342  -4.716  0.00  0.00    -0.027 C 
ATOM     16  C   UNL     1       0.923  -1.574  -3.608  0.00  0.00    -0.004 C 
ATOM     17  C   UNL     1       2.266  -1.754  -3.034  0.00  0.00    -0.000 C 
ATOM     18  C   UNL     1       2.361  -2.672  -2.051  0.00  0.00    +0.003 C 
ATOM     19  C   UNL     1       3.213  -3.831  -2.265  0.00  0.00    -0.048 C 
ATOM     20  C   UNL     1       2.947  -4.665  -3.302  0.00  0.00    -0.023 C 
ENDBRANCH  12  19
ENDBRANCH   1  12
TORSDOF 6
