REMARK  Name = 
REMARK  2 active torsions:
REMARK  status: ('A' for Active; 'I' for Inactive)
REMARK    1  A    between atoms: C_1  and  C_2
REMARK    2  A    between atoms: C_3  and  C_4
REMARK                            x       y       z     vdW  Elec       q    Type
REMARK                         _______ _______ _______ _____ _____    ______ ____
ROOT
ATOM      1  C   UNL     1       0.939  -0.024  -0.003  0.00  0.00    +0.035 C 
ATOM      2  C   UNL     1       2.433   0.019  -0.012  0.00  0.00    -0.027 C 
ATOM      3  C   UNL     1       3.113   1.146  -0.262  0.00  0.00    +0.038 C 
ENDROOT
BRANCH   3   4
ATOM      4  C   UNL     1       4.589   1.161  -0.265  0.00  0.00    +0.250 C 
ATOM      5  O   UNL     1       5.215   2.190  -0.492  0.00  0.00    -0.296 OA
ENDBRANCH   3   4
TORSDOF 1
