REMARK  Name = 
REMARK  8 active torsions:
REMARK  status: ('A' for Active; 'I' for Inactive)
REMARK    1  A    between atoms: C_1  and  C_2
REMARK    2  A    between atoms: C_3  and  C_4
REMARK    3  A    between atoms: C_4  and  C_5
REMARK    4  A    between atoms: C_4  and  C_8
REMARK    5  A    between atoms: C_6  and  C_7
REMARK    6  A    between atoms: C_16  and  N_17
REMARK    7  A    between atoms: C_21  and  C_22
REMARK    8  A    between atoms: C_27  and  C_28
REMARK                            x       y       z     vdW  Elec       q    Type
REMARK                         _______ _______ _______ _____ _____    ______ ____
ROOT
ATOM      1  C   UNL     1       4.583   0.865  -2.560  0.00  0.00    +0.028 C 
ATOM      2  C   UNL     1       3.570   1.587  -3.523  0.00  0.00    +0.032 C 
ATOM      3  C   UNL     1       2.543   2.524  -2.771  0.00  0.00    +0.142 C 
ATOM      4  N   UNL     1       3.304   3.472  -1.926  0.00  0.00    -0.292 NA
ATOM      5  C   UNL     1       3.423   3.117  -0.680  0.00  0.00    +0.105 C 
ATOM      6  C   UNL     1       4.849   3.069  -0.158  0.00  0.00    +0.020 C 
ATOM      7  C   UNL     1       5.148   1.915   0.483  0.00  0.00    +0.007 C 
ATOM      8  C   UNL     1       6.224   0.969   0.107  0.00  0.00    -0.025 C 
ATOM      9  C   UNL     1       6.587  -0.046   0.931  0.00  0.00    +0.114 C 
ATOM     10  C   UNL     1       6.145   1.143  -2.618  0.00  0.00    -0.061 C 
ATOM     11  C   UNL     1       6.919   0.979  -1.267  0.00  0.00    +0.067 C 
ATOM     12  C   UNL     1       6.851   1.618  -3.687  0.00  0.00    +0.000 C 
ENDROOT
BRANCH  12  13
ATOM     13  C   UNL     1       8.329   1.823  -3.703  0.00  0.00    +0.004 C 
ATOM     14  C   UNL     1       9.154   2.391  -4.599  0.00  0.00    -0.045 C 
ATOM     15  C   UNL     1       8.844   2.992  -5.871  0.00  0.00    -0.000 C 
ATOM     16  C   UNL     1       9.942   3.112  -6.629  0.00  0.00    -0.026 C 
ATOM     17  C   UNL     1      11.160   2.569  -5.950  0.00  0.00    +0.035 C 
ATOM     18  C   UNL     1      10.692   2.416  -4.488  0.00  0.00    +0.020 C 
ATOM     19  C   UNL     1      11.258   3.571  -3.651  0.00  0.00    +0.013 C 
ENDBRANCH  12  13
BRANCH   9  20
ATOM     20  N   UNL     1       6.024  -0.297   2.159  0.00  0.00    -0.271 NA
ATOM     21  C   UNL     1       6.555  -1.271   2.817  0.00  0.00    +0.140 C 
ENDBRANCH   9  20
BRANCH   1  22
ATOM     22  C   UNL     1       4.059  -0.477  -1.880  0.00  0.00    +0.041 C 
BRANCH  22  25
ATOM     23  C   UNL     1       0.494  -0.234  -0.119  0.00  0.00    +0.035 C 
ATOM     24  C   UNL     1       1.550  -0.428  -1.166  0.00  0.00    -0.034 C 
ATOM     25  C   UNL     1       2.869  -0.289  -0.932  0.00  0.00    -0.023 C 
ENDBRANCH  22  25
BRANCH  22  26
ATOM     26  C   UNL     1       3.873  -1.721  -2.682  0.00  0.00    -0.023 C 
ATOM     27  C   UNL     1       4.224  -1.940  -3.954  0.00  0.00    -0.034 C 
ATOM     28  C   UNL     1       4.070  -3.298  -4.572  0.00  0.00    +0.035 C 
ENDBRANCH  22  26
ENDBRANCH   1  22
TORSDOF 5
