REMARK  Name = 
REMARK  3 active torsions:
REMARK  status: ('A' for Active; 'I' for Inactive)
REMARK    1  A    between atoms: C_7  and  C_8
REMARK    2  A    between atoms: C_9  and  N_10
REMARK    3  A    between atoms: N_10  and  C_11
REMARK                            x       y       z     vdW  Elec       q    Type
REMARK                         _______ _______ _______ _____ _____    ______ ____
ROOT
ATOM      1  C   UNL     1       1.022   1.249   0.314  0.00  0.00    +0.004 C 
ATOM      2  C   UNL     1       1.874   0.021  -0.012  0.00  0.00    +0.001 C 
ATOM      3  C   UNL     1       1.113  -1.278   0.246  0.00  0.00    +0.004 C 
ATOM      4  C   UNL     1      -0.231  -1.301  -0.481  0.00  0.00    +0.031 C 
ATOM      5  C   UNL     1      -1.052  -0.082  -0.116  0.00  0.00    -0.069 C 
ATOM      6  C   UNL     1      -0.327   1.215  -0.408  0.00  0.00    +0.031 C 
ATOM      7  C   UNL     1      -2.282  -0.094   0.435  0.00  0.00    +0.000 C 
ENDROOT
BRANCH   7   8
ATOM      8  C   UNL     1      -3.033  -1.285   0.758  0.00  0.00    +0.015 C 
ATOM      9  C   UNL     1      -4.253  -1.306   1.316  0.00  0.00    +0.071 C 
BRANCH   9  10
ATOM     10  N   UNL     1      -4.945  -2.449   1.617  0.00  0.00    -0.327 N 
ATOM     11  H   UNL     1      -4.475  -3.322   1.391  0.00  0.00    +0.151 HD
BRANCH  10  12
ATOM     12  C   UNL     1      -6.185  -2.576   2.174  0.00  0.00    +0.064 C 
ATOM     13  C   UNL     1      -6.809  -3.726   2.439  0.00  0.00    +0.025 C 
ENDBRANCH  10  12
ENDBRANCH   9  10
ENDBRANCH   7   8
TORSDOF 3
