REMARK  Name = 
REMARK  5 active torsions:
REMARK  status: ('A' for Active; 'I' for Inactive)
REMARK    1  A    between atoms: C_1  and  C_2
REMARK    2  A    between atoms: C_2  and  C_3
REMARK    3  A    between atoms: C_3  and  C_4
REMARK    4  A    between atoms: N_9  and  C_10
REMARK    5  A    between atoms: C_19  and  C_20
REMARK                            x       y       z     vdW  Elec       q    Type
REMARK                         _______ _______ _______ _____ _____    ______ ____
ROOT
ATOM      1  C   UNL     1       2.887  -1.762   0.945  0.00  0.00    +0.064 C 
ATOM      2  C   UNL     1       1.988  -2.693   2.298  0.00  0.00    +0.040 C 
ATOM      3  C   UNL     1       2.943  -3.823   3.268  0.00  0.00    +0.039 C 
ATOM      4  C   UNL     1       4.039  -3.064   2.684  0.00  0.00    +0.042 C 
ATOM      5  C   UNL     1       5.061  -2.865   1.639  0.00  0.00    +0.093 C 
ATOM      6  N   UNL     1       4.503  -1.715   0.904  0.00  0.00    -0.301 NA
ATOM      7  C   UNL     1       5.282  -0.596   1.476  0.00  0.00    +0.105 C 
ATOM      8  C   UNL     1       1.988  -1.650   3.284  0.00  0.00    -0.060 C 
ATOM      9  C   UNL     1       3.326  -1.680   3.431  0.00  0.00    -0.036 C 
ATOM     10  C   UNL     1       0.997  -1.397   4.392  0.00  0.00    +0.032 C 
ATOM     11  C   UNL     1       1.015   0.058   4.838  0.00  0.00    +0.008 C 
ATOM     12  C   UNL     1       2.411   0.705   5.038  0.00  0.00    +0.028 C 
ATOM     13  C   UNL     1       3.663  -0.176   5.264  0.00  0.00    -0.019 C 
ATOM     14  C   UNL     1       3.856  -1.385   4.699  0.00  0.00    -0.025 C 
ATOM     15  C   UNL     1       4.281  -2.637   5.306  0.00  0.00    +0.015 C 
ATOM     16  C   UNL     1       3.857  -3.777   4.655  0.00  0.00    -0.003 C 
ENDROOT
BRANCH  16  17
ATOM     17  C   UNL     1       4.776  -4.937   4.841  0.00  0.00    +0.254 C 
ATOM     18  O   UNL     1       4.570  -6.019   4.313  0.00  0.00    -0.296 OA
ENDBRANCH  16  17
BRANCH   1  19
ATOM     19  C   UNL     1       2.197  -0.360   0.777  0.00  0.00    +0.019 C 
BRANCH  19  21
ATOM     20  C   UNL     1       1.849   1.951  -0.093  0.00  0.00    +0.004 C 
ATOM     21  C   UNL     1       2.741   0.715  -0.171  0.00  0.00    -0.002 C 
ENDBRANCH  19  21
ENDBRANCH   1  19
TORSDOF 3
