REMARK  Name = 
REMARK  2 active torsions:
REMARK  status: ('A' for Active; 'I' for Inactive)
REMARK    1  A    between atoms: C_4  and  C_5
REMARK    2  A    between atoms: C_4  and  N_8
REMARK                            x       y       z     vdW  Elec       q    Type
REMARK                         _______ _______ _______ _____ _____    ______ ____
ROOT
ATOM      1  C   UNL     1       0.847  -1.296   0.517  0.00  0.00    +0.194 C 
ATOM      2  O   UNL     1       1.692  -0.198   0.204  0.00  0.00    -0.373 OA
ATOM      3  C   UNL     1       1.069   0.974  -0.315  0.00  0.00    +0.187 C 
ATOM      4  C   UNL     1      -0.142   1.566   0.503  0.00  0.00    +0.069 C 
ATOM      5  C   UNL     1      -1.394   0.711   0.323  0.00  0.00    -0.002 C 
ATOM      6  C   UNL     1      -1.488  -0.548  -0.132  0.00  0.00    +0.003 C 
ATOM      7  C   UNL     1      -0.379  -1.461  -0.351  0.00  0.00    -0.029 C 
ATOM      8  C   UNL     1      -0.514  -2.502  -1.185  0.00  0.00    +0.014 C 
ENDROOT
BRANCH   4   9
ATOM      9  C   UNL     1      -0.297   3.024   0.030  0.00  0.00    +0.060 C 
ATOM     10  C   UNL     1      -1.249   3.986   0.549  0.00  0.00    -0.021 C 
ATOM     11  C   UNL     1      -1.488   3.441  -0.637  0.00  0.00    -0.021 C 
ENDBRANCH   4   9
BRANCH   4  12
ATOM     12  N   UNL     1       0.154   1.634   1.946  0.00  0.00    -0.319 NA
ATOM     13  H   UNL     1       1.160   1.750   2.061  0.00  0.00    +0.119 HD
ATOM     14  H   UNL     1      -0.043   0.723   2.356  0.00  0.00    +0.119 HD
ENDBRANCH   4  12
TORSDOF 2
