REMARK  Name = 
REMARK  20 active torsions:
REMARK  status: ('A' for Active; 'I' for Inactive)
REMARK    1  A    between atoms: C_1  and  C_2
REMARK    2  A    between atoms: C_2  and  C_3
REMARK    3  A    between atoms: C_4  and  C_5
REMARK    4  A    between atoms: C_5  and  C_7
REMARK    5  A    between atoms: C_7  and  C_8
REMARK    6  A    between atoms: C_8  and  C_9
REMARK    7  A    between atoms: C_8  and  C_11
REMARK    8  A    between atoms: C_12  and  C_13
REMARK    9  A    between atoms: C_14  and  C_15
REMARK   10  A    between atoms: C_14  and  C_20
REMARK   11  A    between atoms: C_16  and  C_17
REMARK   12  A    between atoms: C_17  and  C_18
REMARK   13  A    between atoms: C_18  and  S_19
REMARK   14  A    between atoms: C_25  and  C_26
REMARK   15  A    between atoms: C_26  and  C_27
REMARK   16  A    between atoms: C_27  and  C_28
REMARK   17  A    between atoms: C_28  and  C_29
REMARK   18  A    between atoms: C_29  and  C_30
REMARK   19  A    between atoms: C_30  and  N_31
REMARK   20  A    between atoms: N_31  and  C_32
REMARK                            x       y       z     vdW  Elec       q    Type
REMARK                         _______ _______ _______ _____ _____    ______ ____
ROOT
ATOM      1  C   UNL     1       9.883   5.857  -3.482  0.00  0.00    +0.008 C 
ATOM      2  C   UNL     1      10.353   6.995  -4.054  0.00  0.00    -0.022 C 
ENDROOT
BRANCH   2   3
ATOM      3  C   UNL     1      11.829   7.237  -4.157  0.00  0.00    -0.037 C 
ATOM      4  C   UNL     1      12.315   8.362  -4.732  0.00  0.00    +0.004 C 
ATOM      5  C   UNL     1      13.729   8.596  -4.934  0.00  0.00    -0.004 C 
ATOM      6  C   UNL     1      14.608   7.588  -4.868  0.00  0.00    -0.026 C 
ATOM      7  C   UNL     1      14.162   6.209  -4.480  0.00  0.00    +0.035 C 
ATOM      8  C   UNL     1      12.848   6.197  -3.649  0.00  0.00    +0.023 C 
BRANCH   8   9
ATOM      9  C   UNL     1      13.131   6.346  -2.124  0.00  0.00    +0.008 C 
BRANCH   9  10
ATOM     10  C   UNL     1      13.847   7.638  -1.711  0.00  0.00    +0.001 C 
BRANCH  10  11
ATOM     11  C   UNL     1      14.127   7.711  -0.212  0.00  0.00    +0.001 C 
BRANCH  11  12
ATOM     12  C   UNL     1      14.858   9.015   0.124  0.00  0.00    +0.015 C 
BRANCH  12  13
ATOM     13  C   UNL     1      15.157   9.112   1.617  0.00  0.00    +0.080 C 
BRANCH  13  14
ATOM     14  N   UNL     1      15.851  10.366   1.903  0.00  0.00    -0.319 NA
ATOM     15  C   UNL     1      16.137  10.483   3.327  0.00  0.00    +0.101 C 
ATOM     16  H   UNL     1      15.272  11.152   1.608  0.00  0.00    +0.122 HD
ENDBRANCH  13  14
ENDBRANCH  12  13
ENDBRANCH  11  12
ENDBRANCH  10  11
ENDBRANCH   9  10
ENDBRANCH   8   9
ENDBRANCH   2   3
BRANCH   2  17
ATOM     17  C   UNL     1       9.398   7.923  -4.681  0.00  0.00    +0.004 C 
ATOM     18  C   UNL     1       8.423   8.595  -4.049  0.00  0.00    -0.025 C 
BRANCH  18  19
ATOM     19  C   UNL     1       7.513   9.579  -4.738  0.00  0.00    +0.037 C 
BRANCH  19  20
ATOM     20  C   UNL     1       7.565  10.981  -4.122  0.00  0.00    +0.069 C 
BRANCH  20  21
ATOM     21  S   UNL     1       9.186  11.786  -4.329  0.00  0.00    -0.178 S 
ATOM     22  H   UNL     1       9.898  10.862  -3.664  0.00  0.00    +0.102 HD
ENDBRANCH  20  21
ENDBRANCH  19  20
ENDBRANCH  18  19
ENDBRANCH   2  17
BRANCH   1  24
ATOM     23  C   UNL     1       8.077   4.213  -3.654  0.00  0.00    -0.019 C 
ATOM     24  C   UNL     1       8.511   5.435  -3.298  0.00  0.00    -0.003 C 
BRANCH  23  25
ATOM     25  C   UNL     1       6.746   3.643  -3.208  0.00  0.00    +0.038 C 
BRANCH  25  26
ATOM     26  C   UNL     1       7.026   2.417  -2.356  0.00  0.00    -0.027 C 
ATOM     27  C   UNL     1       6.963   1.130  -2.722  0.00  0.00    +0.004 C 
ENDBRANCH  25  26
BRANCH  25  28
ATOM     28  C   UNL     1       5.750   3.450  -4.386  0.00  0.00    +0.046 C 
BRANCH  28  29
ATOM     29  C   UNL     1       4.347   3.071  -3.934  0.00  0.00    -0.054 C 
ATOM     30  C   UNL     1       3.735   1.942  -4.328  0.00  0.00    +0.012 C 
BRANCH  29  32
ATOM     31  C   UNL     1       3.299   3.690  -1.800  0.00  0.00    -0.027 C 
ATOM     32  C   UNL     1       3.692   4.012  -3.042  0.00  0.00    -0.001 C 
BRANCH  31  34
ATOM     33  C   UNL     1       3.641   4.736   0.429  0.00  0.00    +0.008 C 
ATOM     34  C   UNL     1       2.756   4.676  -0.809  0.00  0.00    +0.024 C 
ENDBRANCH  31  34
ENDBRANCH  29  32
ENDBRANCH  28  29
ENDBRANCH  25  28
ENDBRANCH  23  25
ENDBRANCH   1  24
TORSDOF 18
