REMARK  Name = 
REMARK  12 active torsions:
REMARK  status: ('A' for Active; 'I' for Inactive)
REMARK    1  A    between atoms: C_1  and  N_2
REMARK    2  A    between atoms: N_2  and  C_3
REMARK    3  A    between atoms: C_3  and  C_4
REMARK    4  A    between atoms: C_4  and  C_5
REMARK    5  A    between atoms: C_5  and  C_6
REMARK    6  A    between atoms: C_9  and  C_10
REMARK    7  A    between atoms: C_11  and  C_12
REMARK    8  A    between atoms: C_13  and  C_14
REMARK    9  A    between atoms: C_15  and  C_16
REMARK   10  A    between atoms: C_16  and  C_18
REMARK   11  A    between atoms: C_19  and  N_20
REMARK   12  A    between atoms: C_21  and  C_22
REMARK                            x       y       z     vdW  Elec       q    Type
REMARK                         _______ _______ _______ _____ _____    ______ ____
ROOT
ATOM      1  C   UNL     1       9.596   0.492  -1.489  0.00  0.00    -0.019 C 
ATOM      2  C   UNL     1      10.637   1.010  -0.814  0.00  0.00    -0.004 C 
ENDROOT
BRANCH   1   6
ATOM      3  C   UNL     1       6.648   1.216  -2.543  0.00  0.00    -0.072 C 
ATOM      4  C   UNL     1       7.704   0.648  -3.160  0.00  0.00    -0.020 C 
ATOM      5  C   UNL     1       7.525   2.009  -1.591  0.00  0.00    +0.042 C 
ATOM      6  C   UNL     1       8.737   1.382  -2.325  0.00  0.00    +0.038 C 
BRANCH   3   7
ATOM      7  C   UNL     1       5.135   1.104  -2.680  0.00  0.00    +0.032 C 
BRANCH   7   8
ATOM      8  C   UNL     1       4.684  -0.345  -2.474  0.00  0.00    +0.019 C 
BRANCH   8   9
ATOM      9  C   UNL     1       3.168  -0.474  -2.625  0.00  0.00    +0.081 C 
BRANCH   9  11
ATOM     10  C   UNL     1       1.318  -2.008  -2.531  0.00  0.00    +0.101 C 
ATOM     11  N   UNL     1       2.760  -1.859  -2.388  0.00  0.00    -0.319 NA
ATOM     12  H   UNL     1       3.231  -2.473  -3.053  0.00  0.00    +0.122 HD
ENDBRANCH   9  11
ENDBRANCH   8   9
ENDBRANCH   7   8
ENDBRANCH   3   7
ENDBRANCH   1   6
BRANCH   2  13
ATOM     13  C   UNL     1      11.510   0.211   0.022  0.00  0.00    -0.000 C 
ATOM     14  C   UNL     1      12.560   0.708   0.704  0.00  0.00    +0.000 C 
BRANCH  14  15
ATOM     15  C   UNL     1      13.410  -0.128   1.529  0.00  0.00    +0.001 C 
ATOM     16  C   UNL     1      14.456   0.310   2.250  0.00  0.00    +0.007 C 
BRANCH  16  17
ATOM     17  C   UNL     1      15.293  -0.546   3.101  0.00  0.00    -0.031 C 
ATOM     18  C   UNL     1      16.588  -0.205   3.258  0.00  0.00    +0.017 C 
BRANCH  17  19
ATOM     19  C   UNL     1      14.835  -1.751   3.801  0.00  0.00    +0.027 C 
ATOM     20  C   UNL     1      13.592  -1.953   4.263  0.00  0.00    +0.111 C 
BRANCH  20  21
ATOM     21  N   UNL     1      13.226  -3.116   4.891  0.00  0.00    -0.268 NA
ATOM     22  C   UNL     1      11.988  -3.191   5.257  0.00  0.00    +0.080 C 
ATOM     23  C   UNL     1      11.463  -4.412   5.949  0.00  0.00    +0.057 C 
ENDBRANCH  20  21
ENDBRANCH  17  19
ENDBRANCH  16  17
ENDBRANCH  14  15
ENDBRANCH   2  13
TORSDOF 10
