REMARK  Name = 
REMARK  5 active torsions:
REMARK  status: ('A' for Active; 'I' for Inactive)
REMARK    1  A    between atoms: N_2  and  C_3
REMARK    2  A    between atoms: C_7  and  C_8
REMARK    3  A    between atoms: N_12  and  C_13
REMARK    4  A    between atoms: C_14  and  C_15
REMARK    5  A    between atoms: C_16  and  C_17
REMARK                            x       y       z     vdW  Elec       q    Type
REMARK                         _______ _______ _______ _____ _____    ______ ____
ROOT
ATOM      1  C   UNL     1      -1.594  -1.368   0.078  0.00  0.00    +0.192 C 
ATOM      2  N   UNL     1      -2.525  -0.249   0.299  0.00  0.00    -0.286 NA
ATOM      3  C   UNL     1      -2.820  -0.048   1.709  0.00  0.00    +0.106 C 
ATOM      4  C   UNL     1      -2.141   0.984  -0.404  0.00  0.00    +0.112 C 
ATOM      5  C   UNL     1      -0.881   1.567   0.125  0.00  0.00    -0.013 C 
ATOM      6  C   UNL     1       0.330   1.461  -0.508  0.00  0.00    +0.001 C 
ATOM      7  C   UNL     1       1.631   1.493   0.217  0.00  0.00    +0.138 C 
ATOM      8  C   UNL     1       1.549   1.629   1.742  0.00  0.00    +0.042 C 
ATOM      9  O   UNL     1       2.503   0.460  -0.255  0.00  0.00    -0.371 OA
ATOM     10  C   UNL     1       2.237  -0.945  -0.163  0.00  0.00    +0.179 C 
ATOM     11  C   UNL     1       0.829  -1.524  -0.428  0.00  0.00    +0.134 C 
ATOM     12  N   UNL     1      -0.215  -1.451   0.633  0.00  0.00    -0.321 N 
ENDROOT
BRANCH  12  13
ATOM     13  C   UNL     1       0.036  -1.531   2.001  0.00  0.00    +0.071 C 
ATOM     14  C   UNL     1       1.002  -2.173   2.652  0.00  0.00    +0.016 C 
BRANCH  14  15
ATOM     15  C   UNL     1       1.476  -1.905   3.988  0.00  0.00    +0.010 C 
ATOM     16  C   UNL     1       2.455  -2.678   4.501  0.00  0.00    +0.059 C 
BRANCH  16  17
ATOM     17  C   UNL     1       2.828  -2.439   5.955  0.00  0.00    -0.077 C 
ATOM     18  C   UNL     1       3.148  -2.233   7.202  0.00  0.00    +0.009 C 
ENDBRANCH  16  17
ENDBRANCH  14  15
ENDBRANCH  12  13
TORSDOF 3
