REMARK  Name = 
REMARK  19 active torsions:
REMARK  status: ('A' for Active; 'I' for Inactive)
REMARK    1  A    between atoms: C_1  and  C_2
REMARK    2  A    between atoms: C_3  and  C_4
REMARK    3  A    between atoms: C_5  and  N_6
REMARK    4  A    between atoms: C_8  and  C_9
REMARK    5  A    between atoms: C_8  and  C_10
REMARK    6  A    between atoms: C_10  and  C_12
REMARK    7  A    between atoms: C_12  and  C_13
REMARK    8  A    between atoms: C_13  and  N_14
REMARK    9  A    between atoms: N_14  and  C_15
REMARK   10  A    between atoms: C_16  and  C_17
REMARK   11  A    between atoms: C_18  and  N_19
REMARK   12  A    between atoms: C_18  and  C_26
REMARK   13  A    between atoms: N_19  and  C_20
REMARK   14  A    between atoms: C_21  and  C_22
REMARK   15  A    between atoms: N_23  and  C_24
REMARK   16  A    between atoms: C_26  and  C_27
REMARK   17  A    between atoms: C_27  and  C_29
REMARK   18  A    between atoms: C_29  and  C_30
REMARK   19  A    between atoms: C_30  and  C_31
REMARK                            x       y       z     vdW  Elec       q    Type
REMARK                         _______ _______ _______ _____ _____    ______ ____
ROOT
ATOM      1  C   UNL     1      14.119  -5.554  -3.696  0.00  0.00    +0.067 C 
ATOM      2  C   UNL     1      14.782  -6.571  -4.264  0.00  0.00    +0.016 C 
ENDROOT
BRANCH   2   3
ATOM      3  C   UNL     1      16.204  -6.700  -4.556  0.00  0.00    +0.020 C 
ATOM      4  C   UNL     1      16.696  -7.512  -5.533  0.00  0.00    +0.012 C 
BRANCH   4   5
ATOM      5  N   UNL     1      15.825  -8.138  -6.433  0.00  0.00    -0.323 N 
ATOM      6  H   UNL     1      14.857  -7.849  -6.322  0.00  0.00    +0.151 HD
BRANCH   5   7
ATOM      7  C   UNL     1      16.021  -8.900  -7.555  0.00  0.00    +0.073 C 
ATOM      8  C   UNL     1      15.049  -9.349  -8.361  0.00  0.00    +0.036 C 
BRANCH   8   9
ATOM      9  C   UNL     1      15.411 -10.175  -9.529  0.00  0.00    +0.125 C 
ATOM     10  N   UNL     1      14.525 -10.679 -10.318  0.00  0.00    -0.181 NA
BRANCH  10  11
ATOM     11  C   UNL     1      15.026 -11.416 -11.317  0.00  0.00    +0.205 C 
ATOM     12  N   UNL     1      15.491 -12.048 -12.169  0.00  0.00    -0.169 NA
ENDBRANCH  10  11
ENDBRANCH   8   9
ENDBRANCH   5   7
ENDBRANCH   4   5
BRANCH   4  13
ATOM     13  C   UNL     1      18.217  -7.587  -5.775  0.00  0.00    +0.080 C 
BRANCH  13  14
ATOM     14  C   UNL     1      19.005  -8.751  -5.171  0.00  0.00    -0.071 C 
ATOM     15  C   UNL     1      18.701  -9.382  -4.021  0.00  0.00    +0.008 C 
BRANCH  14  16
ATOM     16  C   UNL     1      20.244  -9.194  -5.944  0.00  0.00    +0.030 C 
BRANCH  16  17
ATOM     17  C   UNL     1      21.291  -8.105  -6.217  0.00  0.00    +0.001 C 
ATOM     18  C   UNL     1      21.921  -7.510  -4.966  0.00  0.00    +0.004 C 
ENDBRANCH  16  17
ENDBRANCH  14  16
ENDBRANCH  13  14
ENDBRANCH   4  13
ENDBRANCH   2   3
BRANCH   1  19
ATOM     19  N   UNL     1      12.749  -5.560  -3.526  0.00  0.00    -0.349 N 
ATOM     20  H   UNL     1      12.266  -6.380  -3.882  0.00  0.00    +0.146 HD
BRANCH  19  21
ATOM     21  C   UNL     1      11.917  -4.503  -2.966  0.00  0.00    +0.109 C 
BRANCH  21  22
ATOM     22  C   UNL     1      10.434  -4.907  -2.982  0.00  0.00    +0.098 C 
BRANCH  22  23
ATOM     23  C   UNL     1       9.571  -3.814  -2.365  0.00  0.00    +0.169 C 
ATOM     24  O   UNL     1      10.064  -2.770  -1.938  0.00  0.00    -0.292 OA
BRANCH  23  27
ATOM     25  N   UNL     1       7.063  -6.088  -3.130  0.00  0.00    -0.213 NA
ATOM     26  C   UNL     1       7.526  -5.091  -2.710  0.00  0.00    -0.006 C 
ATOM     27  C   UNL     1       8.086  -4.001  -2.269  0.00  0.00    +0.053 C 
ATOM     28  C   UNL     1       7.328  -2.857  -1.661  0.00  0.00    +0.058 C 
BRANCH  25  30
ATOM     29  C   UNL     1       5.060  -7.335  -3.333  0.00  0.00    +0.020 C 
ATOM     30  C   UNL     1       5.715  -6.249  -2.891  0.00  0.00    +0.121 C 
BRANCH  29  33
ATOM     31  C   UNL     1       1.583  -8.974  -3.369  0.00  0.00    +0.035 C 
ATOM     32  C   UNL     1       3.036  -8.693  -3.582  0.00  0.00    -0.030 C 
ATOM     33  C   UNL     1       3.651  -7.590  -3.125  0.00  0.00    -0.003 C 
ENDBRANCH  29  33
ENDBRANCH  25  30
ENDBRANCH  23  27
ENDBRANCH  22  23
ENDBRANCH  21  22
ENDBRANCH  19  21
ENDBRANCH   1  19
TORSDOF 16
