REMARK  Name = 
REMARK  19 active torsions:
REMARK  status: ('A' for Active; 'I' for Inactive)
REMARK    1  A    between atoms: C_1  and  C_2
REMARK    2  A    between atoms: C_2  and  C_3
REMARK    3  A    between atoms: C_3  and  C_4
REMARK    4  A    between atoms: C_4  and  C_6
REMARK    5  A    between atoms: C_6  and  C_7
REMARK    6  A    between atoms: C_6  and  C_8
REMARK    7  A    between atoms: C_9  and  N_10
REMARK    8  A    between atoms: N_10  and  N_11
REMARK    9  A    between atoms: N_14  and  C_15
REMARK   10  A    between atoms: C_15  and  N_16
REMARK   11  A    between atoms: C_22  and  C_23
REMARK   12  A    between atoms: C_24  and  C_25
REMARK   13  A    between atoms: C_26  and  C_27
REMARK   14  A    between atoms: C_32  and  C_33
REMARK   15  A    between atoms: C_33  and  C_34
REMARK   16  A    between atoms: C_33  and  C_35
REMARK   17  A    between atoms: C_35  and  C_36
REMARK   18  A    between atoms: C_37  and  C_38
REMARK   19  A    between atoms: C_38  and  C_39
REMARK                            x       y       z     vdW  Elec       q    Type
REMARK                         _______ _______ _______ _____ _____    ______ ____
ROOT
ATOM      1  N   UNL     1      14.505  -5.846  -2.006  0.00  0.00    -0.290 N 
ATOM      2  C   UNL     1      14.170  -7.182  -1.765  0.00  0.00    +0.077 C 
ATOM      3  C   UNL     1      14.835  -8.234  -2.249  0.00  0.00    +0.015 C 
ATOM      4  C   UNL     1      15.982  -7.994  -3.087  0.00  0.00    +0.003 C 
ATOM      5  C   UNL     1      16.368  -6.737  -3.353  0.00  0.00    +0.023 C 
ATOM      6  C   UNL     1      15.665  -5.556  -2.797  0.00  0.00    +0.035 C 
ATOM      7  C   UNL     1      16.281  -4.384  -3.063  0.00  0.00    +0.023 C 
ENDROOT
BRANCH   7   8
ATOM      8  C   UNL     1      16.052  -3.081  -2.501  0.00  0.00    +0.002 C 
ATOM      9  C   UNL     1      15.003  -2.279  -2.718  0.00  0.00    +0.000 C 
BRANCH   9  10
ATOM     10  C   UNL     1      14.870  -1.066  -1.961  0.00  0.00    +0.001 C 
ATOM     11  C   UNL     1      14.100  -0.026  -2.312  0.00  0.00    +0.008 C 
BRANCH  11  12
ATOM     12  C   UNL     1      14.151   1.234  -1.575  0.00  0.00    -0.026 C 
ATOM     13  C   UNL     1      15.381   1.769  -1.410  0.00  0.00    -0.018 C 
ATOM     14  C   UNL     1      15.687   3.031  -0.687  0.00  0.00    +0.032 C 
ATOM     15  C   UNL     1      14.463   3.815  -0.222  0.00  0.00    +0.031 C 
ATOM     16  C   UNL     1      13.146   3.119  -0.399  0.00  0.00    -0.022 C 
ATOM     17  C   UNL     1      12.976   1.935  -1.024  0.00  0.00    -0.041 C 
BRANCH  17  18
ATOM     18  C   UNL     1      11.587   1.295  -1.192  0.00  0.00    +0.020 C 
ATOM     19  C   UNL     1      11.267   0.409   0.020  0.00  0.00    +0.013 C 
BRANCH  18  20
ATOM     20  C   UNL     1      10.415   2.287  -1.421  0.00  0.00    +0.034 C 
BRANCH  20  21
ATOM     21  C   UNL     1      10.563   3.090  -2.687  0.00  0.00    -0.030 C 
ATOM     22  C   UNL     1       9.669   3.085  -3.688  0.00  0.00    -0.031 C 
BRANCH  22  23
ATOM     23  C   UNL     1       9.832   3.869  -4.955  0.00  0.00    +0.023 C 
ATOM     24  C   UNL     1       8.716   4.887  -5.123  0.00  0.00    +0.008 C 
ENDBRANCH  22  23
ENDBRANCH  20  21
ENDBRANCH  18  20
ENDBRANCH  17  18
ENDBRANCH  11  12
ENDBRANCH   9  10
ENDBRANCH   7   8
BRANCH   1  25
ATOM     25  C   UNL     1      13.497  -4.850  -1.626  0.00  0.00    +0.219 C 
BRANCH  25  29
ATOM     26  N   UNL     1      13.377  -3.156   1.577  0.00  0.00    -0.221 N 
ATOM     27  C   UNL     1      12.925  -3.575   0.335  0.00  0.00    +0.317 C 
ATOM     28  O   UNL     1      11.779  -3.386  -0.065  0.00  0.00    -0.251 OA
ATOM     29  N   UNL     1      13.876  -4.246  -0.384  0.00  0.00    -0.282 N 
ATOM     30  H   UNL     1      14.330  -2.813   1.600  0.00  0.00    +0.174 HD
ATOM     31  H   UNL     1      14.641  -4.688   0.096  0.00  0.00    +0.152 HD
BRANCH  26  32
ATOM     32  N   UNL     1      12.464  -2.362   2.284  0.00  0.00    -0.271 N 
ATOM     33  H   UNL     1      11.506  -2.406   1.917  0.00  0.00    +0.169 HD
BRANCH  32  35
ATOM     34  C   UNL     1      11.666  -1.420   4.350  0.00  0.00    -0.003 C 
ATOM     35  C   UNL     1      12.624  -1.954   3.577  0.00  0.00    +0.084 C 
BRANCH  34  36
ATOM     36  C   UNL     1      11.880  -0.916   5.763  0.00  0.00    +0.035 C 
ATOM     37  C   UNL     1      11.125  -1.846   6.726  0.00  0.00    +0.016 C 
BRANCH  36  38
ATOM     38  C   UNL     1      11.510   0.569   5.879  0.00  0.00    -0.070 C 
ATOM     39  C   UNL     1      10.576   1.056   6.720  0.00  0.00    +0.008 C 
BRANCH  38  40
ATOM     40  C   UNL     1      12.268   1.526   4.969  0.00  0.00    +0.030 C 
BRANCH  40  42
ATOM     41  C   UNL     1      14.154   2.109   6.582  0.00  0.00    +0.004 C 
ATOM     42  C   UNL     1      13.046   2.639   5.685  0.00  0.00    +0.001 C 
ENDBRANCH  40  42
ENDBRANCH  38  40
ENDBRANCH  36  38
ENDBRANCH  34  36
ENDBRANCH  32  35
ENDBRANCH  26  32
ENDBRANCH  25  29
ENDBRANCH   1  25
TORSDOF 15
