REMARK  Name = 
REMARK  16 active torsions:
REMARK  status: ('A' for Active; 'I' for Inactive)
REMARK    1  A    between atoms: C_1  and  O_2
REMARK    2  A    between atoms: O_2  and  C_3
REMARK    3  A    between atoms: C_4  and  C_5
REMARK    4  A    between atoms: C_6  and  C_7
REMARK    5  A    between atoms: C_6  and  N_8
REMARK    6  A    between atoms: N_8  and  C_9
REMARK    7  A    between atoms: C_12  and  C_15
REMARK    8  A    between atoms: C_16  and  O_17
REMARK    9  A    between atoms: C_16  and  N_18
REMARK   10  A    between atoms: N_18  and  S_19
REMARK   11  A    between atoms: C_20  and  N_21
REMARK   12  A    between atoms: N_21  and  O_22
REMARK   13  A    between atoms: O_22  and  C_23
REMARK   14  A    between atoms: C_24  and  C_25
REMARK   15  A    between atoms: C_26  and  C_27
REMARK   16  A    between atoms: C_27  and  C_28
REMARK                            x       y       z     vdW  Elec       q    Type
REMARK                         _______ _______ _______ _____ _____    ______ ____
ROOT
ATOM      1  C   UNL     1      11.266   0.182   0.467  0.00  0.00    +0.092 C 
ATOM      2  C   UNL     1      11.507  -0.716  -0.512  0.00  0.00    +0.189 C 
ENDROOT
BRANCH   1   6
ATOM      3  C   UNL     1       8.683  -0.257   3.907  0.00  0.00    +0.198 C 
ATOM      4  N   UNL     1       9.254   1.012   3.518  0.00  0.00    -0.326 N 
ATOM      5  C   UNL     1      10.050   1.090   2.390  0.00  0.00    +0.097 C 
ATOM      6  C   UNL     1      10.455   0.018   1.677  0.00  0.00    +0.082 C 
ATOM      7  N   UNL     1      10.106  -1.277   2.031  0.00  0.00    -0.255 NA
ATOM      8  C   UNL     1       9.315  -1.394   3.072  0.00  0.00    +0.126 C 
ATOM      9  H   UNL     1       8.611   1.787   3.646  0.00  0.00    +0.148 HD
BRANCH   3  10
ATOM     10  N   UNL     1       7.250  -0.214   3.675  0.00  0.00    -0.325 N 
ATOM     11  H   UNL     1       6.988  -0.319   2.699  0.00  0.00    +0.148 HD
BRANCH  10  13
ATOM     12  C   UNL     1       4.930   0.192   4.144  0.00  0.00    +0.021 C 
ATOM     13  C   UNL     1       6.226   0.176   4.545  0.00  0.00    +0.002 C 
ATOM     14  C   UNL     1       6.646   0.564   5.949  0.00  0.00    +0.060 C 
BRANCH  12  16
ATOM     15  C   UNL     1       2.497   0.556   4.561  0.00  0.00    +0.186 C 
ATOM     16  C   UNL     1       3.779   0.564   4.948  0.00  0.00    +0.039 C 
BRANCH  15  18
ATOM     17  C   UNL     1       0.199   0.897   4.936  0.00  0.00    +0.276 C 
ATOM     18  O   UNL     1       1.524   0.939   5.452  0.00  0.00    -0.503 OA
ENDBRANCH  15  18
ENDBRANCH  12  16
ENDBRANCH  10  13
ENDBRANCH   3  10
ENDBRANCH   1   6
BRANCH   2  19
ATOM     19  O   UNL     1      11.057  -2.015  -0.417  0.00  0.00    -0.495 OA
ATOM     20  H   UNL     1      10.613  -2.075   0.458  0.00  0.00    +0.293 HD
ENDBRANCH   2  19
BRANCH   2  21
ATOM     21  N   UNL     1      12.209  -0.466  -1.691  0.00  0.00    -0.267 N 
ATOM     22  H   UNL     1      12.517  -1.381  -2.024  0.00  0.00    +0.162 HD
BRANCH  21  23
ATOM     23  S   UNL     1      11.301   0.355  -2.880  0.00  0.00    -0.100 S 
ATOM     24  C   UNL     1      12.481   0.214  -4.235  0.00  0.00    +0.143 C 
ATOM     25  H   UNL     1      11.457   1.609  -2.521  0.00  0.00    +0.117 HD
BRANCH  24  26
ATOM     26  N   UNL     1      12.355   1.083  -5.284  0.00  0.00    -0.212 N 
ATOM     27  H   UNL     1      11.568   1.727  -5.330  0.00  0.00    +0.181 HD
BRANCH  26  28
ATOM     28  O   UNL     1      12.902   0.654  -6.513  0.00  0.00    -0.192 OA
BRANCH  28  29
ATOM     29  C   UNL     1      12.171   1.171  -7.507  0.00  0.00    +0.095 C 
ATOM     30  C   UNL     1      11.529   1.620  -8.428  0.00  0.00    +0.017 C 
BRANCH  30  31
ATOM     31  C   UNL     1      10.712   2.170  -9.621  0.00  0.00    -0.012 C 
ATOM     32  C   UNL     1      10.048   2.573 -10.534  0.00  0.00    -0.084 C 
BRANCH  32  33
ATOM     33  C   UNL     1       9.187   3.023 -11.645  0.00  0.00    +0.116 C 
BRANCH  33  34
ATOM     34  C   UNL     1       9.946   3.898 -12.602  0.00  0.00    -0.022 C 
ATOM     35  C   UNL     1       9.615   5.161 -12.906  0.00  0.00    +0.005 C 
ENDBRANCH  33  34
ENDBRANCH  32  33
ENDBRANCH  30  31
ENDBRANCH  28  29
ENDBRANCH  26  28
ENDBRANCH  24  26
ENDBRANCH  21  23
ENDBRANCH   2  21
TORSDOF 14
