REMARK  Name = 
REMARK  4 active torsions:
REMARK  status: ('A' for Active; 'I' for Inactive)
REMARK    1  A    between atoms: C_6  and  C_7
REMARK    2  A    between atoms: C_7  and  C_8
REMARK    3  A    between atoms: C_12  and  C_13
REMARK    4  A    between atoms: C_18  and  C_19
REMARK                            x       y       z     vdW  Elec       q    Type
REMARK                         _______ _______ _______ _____ _____    ______ ____
ROOT
ATOM      1  C   UNL     1      -0.548  -0.974  -0.322  0.00  0.00    -0.026 C 
ATOM      2  C   UNL     1      -1.651  -1.599   0.107  0.00  0.00    -0.011 C 
ATOM      3  C   UNL     1      -1.335  -2.940   0.719  0.00  0.00    +0.095 C 
ATOM      4  C   UNL     1      -0.780  -3.879  -0.484  0.00  0.00    +0.012 C 
ATOM      5  C   UNL     1       0.188  -2.976  -1.488  0.00  0.00    +0.013 C 
ATOM      6  C   UNL     1      -0.205  -1.473  -1.693  0.00  0.00    +0.016 C 
ATOM      7  N   UNL     1      -2.247  -2.965   1.861  0.00  0.00    -0.250 NA
ATOM      8  N   UNL     1      -3.000  -4.073   2.243  0.00  0.00    -0.256 NA
ATOM      9  C   UNL     1      -4.046  -4.362   1.274  0.00  0.00    +0.099 C 
ATOM     10  C   UNL     1      -3.768  -5.791   0.853  0.00  0.00    +0.020 C 
ATOM     11  C   UNL     1      -3.722  -6.038  -0.650  0.00  0.00    -0.013 C 
ATOM     12  C   UNL     1      -4.614  -5.141  -1.511  0.00  0.00    +0.007 C 
ATOM     13  C   UNL     1      -2.265  -6.065  -1.121  0.00  0.00    +0.003 C 
ATOM     14  C   UNL     1      -1.608  -4.732  -1.490  0.00  0.00    +0.006 C 
ATOM     15  H   UNL     1      -2.648  -2.048   2.075  0.00  0.00    +0.141 HD
ATOM     16  H   UNL     1      -3.450  -3.904   3.150  0.00  0.00    +0.141 HD
ENDROOT
BRANCH   6  17
ATOM     17  C   UNL     1       0.874  -0.595  -2.350  0.00  0.00    +0.039 C 
BRANCH  17  18
ATOM     18  C   UNL     1       0.504   0.863  -2.367  0.00  0.00    -0.062 C 
ATOM     19  C   UNL     1      -0.159   1.533  -3.327  0.00  0.00    -0.000 C 
ATOM     20  C   UNL     1      -0.343   2.905  -2.929  0.00  0.00    -0.004 C 
ATOM     21  C   UNL     1       0.190   3.119  -1.730  0.00  0.00    -0.019 C 
ATOM     22  C   UNL     1       0.790   1.823  -1.208  0.00  0.00    +0.034 C 
ATOM     23  C   UNL     1       2.262   1.971  -0.891  0.00  0.00    +0.016 C 
ENDBRANCH  17  18
ENDBRANCH   6  17
TORSDOF 2
