REMARK  Name = 
REMARK  4 active torsions:
REMARK  status: ('A' for Active; 'I' for Inactive)
REMARK    1  A    between atoms: C_11  and  C_12
REMARK    2  A    between atoms: C_18  and  C_21
REMARK    3  A    between atoms: C_21  and  N_22
REMARK    4  A    between atoms: C_21  and  N_23
REMARK                            x       y       z     vdW  Elec       q    Type
REMARK                         _______ _______ _______ _____ _____    ______ ____
ROOT
ATOM      1  C   UNL     1      -1.300  -0.465  -0.885  0.00  0.00    +0.058 C 
ATOM      2  C   UNL     1      -1.687  -1.755  -1.710  0.00  0.00    -0.011 C 
ATOM      3  C   UNL     1      -1.638  -3.024  -1.138  0.00  0.00    +0.022 C 
ATOM      4  C   UNL     1      -1.000  -3.753   0.026  0.00  0.00    +0.207 C 
ATOM      5  O   UNL     1       0.124  -3.770   0.487  0.00  0.00    -0.285 OA
ATOM      6  C   UNL     1      -2.798  -3.869  -0.866  0.00  0.00    +0.038 C 
ATOM      7  C   UNL     1      -2.510  -3.938   0.483  0.00  0.00    +0.078 C 
ATOM      8  N   UNL     1      -3.216  -3.869   1.738  0.00  0.00    -0.304 N 
ATOM      9  C   UNL     1      -3.168  -2.477   2.694  0.00  0.00    +0.207 C 
ATOM     10  C   UNL     1      -2.275  -1.614   1.127  0.00  0.00    +0.035 C 
ATOM     11  C   UNL     1      -1.132  -0.921   0.517  0.00  0.00    -0.068 C 
ATOM     12  C   UNL     1       0.444  -0.755   0.793  0.00  0.00    +0.039 C 
ATOM     13  C   UNL     1      -4.604  -1.306   3.582  0.00  0.00    -0.044 C 
ATOM     14  C   UNL     1      -3.322  -1.230   3.356  0.00  0.00    -0.070 C 
ATOM     15  C   UNL     1      -1.828  -1.140   3.093  0.00  0.00    +0.060 C 
ATOM     16  C   UNL     1      -1.595  -0.286   4.169  0.00  0.00    +0.009 C 
ATOM     17  N   UNL     1      -1.569  -3.181   3.651  0.00  0.00    -0.243 NA
ATOM     18  C   UNL     1      -0.337  -2.654   4.225  0.00  0.00    +0.074 C 
ATOM     19  C   UNL     1      -0.166  -1.357   5.139  0.00  0.00    +0.026 C 
ATOM     20  C   UNL     1      -0.230  -0.162   4.558  0.00  0.00    +0.002 C 
ATOM     21  H   UNL     1      -2.586  -4.380   2.394  0.00  0.00    +0.150 HD
ENDROOT
BRANCH  18  22
ATOM     22  C   UNL     1       1.392  -3.089   4.596  0.00  0.00    +0.188 C 
BRANCH  22  23
ATOM     23  N   UNL     1       2.444  -1.966   4.393  0.00  0.00    -0.297 N 
ATOM     24  C   UNL     1       3.596  -1.563   5.052  0.00  0.00    +0.327 C 
ATOM     25  O   UNL     1       4.346  -0.695   4.589  0.00  0.00    -0.279 OA
ATOM     26  H   UNL     1       2.363  -1.461   3.542  0.00  0.00    +0.150 HD
ENDBRANCH  22  23
BRANCH  22  27
ATOM     27  N   UNL     1       2.078  -4.154   3.911  0.00  0.00    -0.308 NA
ATOM     28  H   UNL     1       2.772  -3.684   3.314  0.00  0.00    +0.120 HD
ATOM     29  H   UNL     1       2.722  -4.555   4.607  0.00  0.00    +0.120 HD
ENDBRANCH  22  27
ENDBRANCH  18  22
TORSDOF 3
