REMARK  Name = 
REMARK  4 active torsions:
REMARK  status: ('A' for Active; 'I' for Inactive)
REMARK    1  A    between atoms: C_2  and  C_3
REMARK    2  A    between atoms: C_4  and  C_5
REMARK    3  A    between atoms: C_5  and  C_6
REMARK    4  A    between atoms: C_10  and  C_11
REMARK                            x       y       z     vdW  Elec       q    Type
REMARK                         _______ _______ _______ _____ _____    ______ ____
ROOT
ATOM      1  C   UNL     1       5.442  -1.427  -2.296  0.00  0.00    +0.184 C 
ATOM      2  O   UNL     1       5.005  -0.232  -3.548  0.00  0.00    -0.332 OA
ATOM      3  C   UNL     1       5.073  -0.547  -5.273  0.00  0.00    +0.272 C 
ATOM      4  N   UNL     1       4.853  -2.244  -5.934  0.00  0.00    -0.275 N 
ATOM      5  C   UNL     1       4.874  -3.729  -5.376  0.00  0.00    +0.315 C 
ATOM      6  O   UNL     1       4.803  -4.669  -6.210  0.00  0.00    -0.251 OA
ATOM      7  N   UNL     1       5.012  -4.075  -3.793  0.00  0.00    -0.232 N 
ATOM      8  N   UNL     1       4.794  -3.108  -2.275  0.00  0.00    -0.201 NA
ATOM      9  H   UNL     1       4.828  -2.243  -6.938  0.00  0.00    +0.152 HD
ATOM     10  H   UNL     1       4.963  -5.062  -3.586  0.00  0.00    +0.171 HD
ATOM     11  H   UNL     1       5.478  -3.547  -1.650  0.00  0.00    +0.148 HD
ENDROOT
BRANCH   1  12
ATOM     12  C   UNL     1       6.637  -1.824  -2.878  0.00  0.00    +0.015 C 
ATOM     13  C   UNL     1       7.741  -2.608  -2.876  0.00  0.00    +0.017 C 
ATOM     14  C   UNL     1       8.208  -2.474  -4.151  0.00  0.00    +0.052 C 
ATOM     15  C   UNL     1       7.093  -2.207  -4.903  0.00  0.00    -0.116 C 
ATOM     16  C   UNL     1       5.989  -2.113  -4.010  0.00  0.00    -0.001 C 
ATOM     17  C   UNL     1       3.971  -2.021  -4.003  0.00  0.00    +0.053 C 
ENDBRANCH   1  12
BRANCH   1  19
ATOM     18  C   UNL     1       4.060   0.011  -0.927  0.00  0.00    -0.000 C 
ATOM     19  C   UNL     1       5.203  -0.702  -1.012  0.00  0.00    +0.030 C 
BRANCH  18  21
ATOM     20  C   UNL     1       2.333   1.480  -0.151  0.00  0.00    +0.008 C 
ATOM     21  C   UNL     1       3.518   0.882   0.068  0.00  0.00    -0.008 C 
ENDBRANCH  18  21
ENDBRANCH   1  19
TORSDOF 3
