REMARK  Name = 
REMARK  6 active torsions:
REMARK  status: ('A' for Active; 'I' for Inactive)
REMARK    1  A    between atoms: C_13  and  N_17
REMARK    2  A    between atoms: C_15  and  N_16
REMARK    3  A    between atoms: N_17  and  C_18
REMARK    4  A    between atoms: C_19  and  C_20
REMARK    5  A    between atoms: C_20  and  C_22
REMARK    6  A    between atoms: C_23  and  C_24
REMARK                            x       y       z     vdW  Elec       q    Type
REMARK                         _______ _______ _______ _____ _____    ______ ____
ROOT
ATOM      1  C   UNL     1       0.394  -1.552  -0.240  0.00  0.00    +0.001 C 
ATOM      2  C   UNL     1       0.876  -0.566  -1.025  0.00  0.00    -0.014 C 
ATOM      3  C   UNL     1       2.309  -1.208  -1.091  0.00  0.00    +0.068 C 
ATOM      4  C   UNL     1       1.698  -1.637   0.357  0.00  0.00    -0.040 C 
ATOM      5  C   UNL     1       1.997  -1.015   1.539  0.00  0.00    -0.018 C 
ATOM      6  C   UNL     1       2.665   0.350   1.503  0.00  0.00    +0.063 C 
ATOM      7  C   UNL     1       3.855   0.288   0.577  0.00  0.00    -0.030 C 
ATOM      8  C   UNL     1       3.783  -0.669  -0.472  0.00  0.00    -0.049 C 
ATOM      9  C   UNL     1       5.028  -1.389  -0.709  0.00  0.00    +0.077 C 
ATOM     10  C   UNL     1       6.169  -1.050   0.096  0.00  0.00    +0.019 C 
ATOM     11  C   UNL     1       5.805  -0.460   1.268  0.00  0.00    -0.108 C 
ATOM     12  C   UNL     1       5.103   0.692   1.020  0.00  0.00    +0.022 C 
ATOM     13  C   UNL     1       5.880   1.645   0.256  0.00  0.00    +0.133 C 
ATOM     14  C   UNL     1       6.931   1.073  -0.563  0.00  0.00    +0.024 C 
ATOM     15  C   UNL     1       7.218  -0.301  -0.415  0.00  0.00    +0.034 C 
ENDROOT
BRANCH  15  16
ATOM     16  N   UNL     1       8.545  -0.617  -0.003  0.00  0.00    -0.357 N 
ATOM     17  H   UNL     1       8.726  -1.615   0.052  0.00  0.00    +0.142 HD
ATOM     18  H   UNL     1       9.275  -0.099  -0.476  0.00  0.00    +0.142 HD
ENDBRANCH  15  16
BRANCH  13  19
ATOM     19  N   UNL     1       5.015   2.618  -0.487  0.00  0.00    -0.339 N 
ATOM     20  H   UNL     1       4.308   2.129  -1.035  0.00  0.00    +0.146 HD
BRANCH  19  21
ATOM     21  C   UNL     1       5.390   3.826  -1.034  0.00  0.00    +0.068 C 
ATOM     22  C   UNL     1       4.561   4.591  -1.750  0.00  0.00    +0.022 C 
BRANCH  22  23
ATOM     23  C   UNL     1       4.823   5.900  -2.346  0.00  0.00    -0.031 C 
ATOM     24  C   UNL     1       3.791   6.486  -2.986  0.00  0.00    +0.017 C 
BRANCH  23  25
ATOM     25  C   UNL     1       6.050   6.674  -2.153  0.00  0.00    +0.003 C 
ATOM     26  C   UNL     1       6.560   7.572  -3.014  0.00  0.00    -0.030 C 
ATOM     27  C   UNL     1       7.806   8.355  -2.777  0.00  0.00    +0.035 C 
ENDBRANCH  23  25
ENDBRANCH  22  23
ENDBRANCH  19  21
ENDBRANCH  13  19
TORSDOF 5
