REMARK  Name = 
REMARK  4 active torsions:
REMARK  status: ('A' for Active; 'I' for Inactive)
REMARK    1  A    between atoms: C_12  and  C_13
REMARK    2  A    between atoms: C_16  and  N_17
REMARK    3  A    between atoms: N_17  and  C_18
REMARK    4  A    between atoms: C_19  and  C_20
REMARK                            x       y       z     vdW  Elec       q    Type
REMARK                         _______ _______ _______ _____ _____    ______ ____
ROOT
ATOM      1  C   UNL     1       0.758   2.945  -2.270  0.00  0.00    +0.065 C 
ATOM      2  C   UNL     1      -0.208   1.915  -1.632  0.00  0.00    -0.007 C 
ATOM      3  C   UNL     1       0.662   1.054  -1.059  0.00  0.00    -0.025 C 
ATOM      4  C   UNL     1       1.481   2.027  -0.286  0.00  0.00    +0.008 C 
ATOM      5  C   UNL     1       2.009   2.719  -1.324  0.00  0.00    -0.058 C 
ATOM      6  C   UNL     1       3.309   1.981  -1.675  0.00  0.00    +0.036 C 
ATOM      7  C   UNL     1       3.038   0.418  -1.762  0.00  0.00    +0.040 C 
ATOM      8  C   UNL     1       1.532   0.156  -2.051  0.00  0.00    -0.040 C 
ATOM      9  C   UNL     1       1.329  -0.017  -3.392  0.00  0.00    +0.012 C 
ATOM     10  C   UNL     1       0.918   1.181  -4.170  0.00  0.00    -0.019 C 
ATOM     11  C   UNL     1       0.742   2.476  -3.744  0.00  0.00    -0.040 C 
ATOM     12  C   UNL     1      -0.289   2.638  -4.871  0.00  0.00    +0.070 C 
ATOM     13  C   UNL     1       0.565   1.524  -5.515  0.00  0.00    -0.016 C 
ATOM     14  C   UNL     1       0.748   1.116  -6.782  0.00  0.00    +0.076 C 
ENDROOT
BRANCH  12  15
ATOM     15  C   UNL     1      -0.490   3.933  -5.560  0.00  0.00    -0.022 C 
ATOM     16  C   UNL     1      -0.163   5.125  -5.072  0.00  0.00    +0.005 C 
ENDBRANCH  12  15
BRANCH  14  17
ATOM     17  N   UNL     1       0.313   1.926  -7.794  0.00  0.00    -0.326 N 
ATOM     18  H   UNL     1       0.214   2.884  -7.482  0.00  0.00    +0.151 HD
BRANCH  17  19
ATOM     19  C   UNL     1       0.252   1.861  -9.159  0.00  0.00    +0.067 C 
ATOM     20  C   UNL     1      -0.119   2.936  -9.878  0.00  0.00    -0.015 C 
ATOM     21  C   UNL     1      -0.238   3.052 -11.358  0.00  0.00    +0.036 C 
ENDBRANCH  17  19
ENDBRANCH  14  17
TORSDOF 3
