REMARK  Name = 
REMARK  16 active torsions:
REMARK  status: ('A' for Active; 'I' for Inactive)
REMARK    1  A    between atoms: C_1  and  C_2
REMARK    2  A    between atoms: C_3  and  C_4
REMARK    3  A    between atoms: C_4  and  N_5
REMARK    4  A    between atoms: N_5  and  C_6
REMARK    5  A    between atoms: C_6  and  N_7
REMARK    6  A    between atoms: N_7  and  C_8
REMARK    7  A    between atoms: C_8  and  C_9
REMARK    8  A    between atoms: C_9  and  C_10
REMARK    9  A    between atoms: C_10  and  N_11
REMARK   10  A    between atoms: N_14  and  C_15
REMARK   11  A    between atoms: C_15  and  N_16
REMARK   12  A    between atoms: N_16  and  C_17
REMARK   13  A    between atoms: C_18  and  C_19
REMARK   14  A    between atoms: C_20  and  C_21
REMARK   15  A    between atoms: C_22  and  C_23
REMARK   16  A    between atoms: C_24  and  C_25
REMARK                            x       y       z     vdW  Elec       q    Type
REMARK                         _______ _______ _______ _____ _____    ______ ____
ROOT
ATOM      1  N   UNL     1      11.325   4.130  -5.582  0.00  0.00    -0.299 N 
ATOM      2  C   UNL     1      12.685   4.214  -5.720  0.00  0.00    +0.301 C 
ATOM      3  O   UNL     1      13.478   3.568  -5.046  0.00  0.00    -0.253 OA
ATOM      4  N   UNL     1      13.070   5.116  -6.672  0.00  0.00    -0.284 N 
ATOM      5  H   UNL     1      10.735   4.668  -6.196  0.00  0.00    +0.150 HD
ATOM      6  H   UNL     1      12.420   5.406  -7.380  0.00  0.00    +0.152 HD
ENDROOT
BRANCH   1   7
ATOM      7  C   UNL     1      10.716   3.278  -4.575  0.00  0.00    +0.107 C 
BRANCH   7   8
ATOM      8  C   UNL     1      10.516   4.000  -3.241  0.00  0.00    +0.034 C 
BRANCH   8   9
ATOM      9  C   UNL     1       9.881   3.116  -2.156  0.00  0.00    +0.083 C 
BRANCH   9  10
ATOM     10  N   UNL     1      10.730   1.991  -1.766  0.00  0.00    -0.304 NA
ATOM     11  H   UNL     1      10.965   1.410  -2.563  0.00  0.00    +0.123 HD
BRANCH  10  12
ATOM     12  C   UNL     1      10.105   1.176  -0.750  0.00  0.00    +0.165 C 
BRANCH  12  13
ATOM     13  N   UNL     1      11.017   0.082  -0.495  0.00  0.00    -0.300 NA
ATOM     14  H   UNL     1      11.166  -0.440  -1.353  0.00  0.00    +0.123 HD
BRANCH  13  15
ATOM     15  C   UNL     1      10.466  -0.811   0.517  0.00  0.00    +0.109 C 
BRANCH  15  18
ATOM     16  C   UNL     1      11.973  -4.386   0.948  0.00  0.00    +0.035 C 
ATOM     17  C   UNL     1      11.054  -3.250   0.636  0.00  0.00    -0.033 C 
ATOM     18  C   UNL     1      11.397  -1.958   0.772  0.00  0.00    -0.016 C 
ENDBRANCH  15  18
ENDBRANCH  13  15
ENDBRANCH  12  13
ENDBRANCH  10  12
ENDBRANCH   9  10
ENDBRANCH   8   9
ENDBRANCH   7   8
ENDBRANCH   1   7
BRANCH   4  19
ATOM     19  C   UNL     1      14.449   5.216  -7.021  0.00  0.00    +0.210 C 
BRANCH  19  20
ATOM     20  N   UNL     1      14.585   6.484  -7.686  0.00  0.00    -0.334 N 
ATOM     21  H   UNL     1      14.813   7.261  -7.073  0.00  0.00    +0.147 HD
BRANCH  20  22
ATOM     22  C   UNL     1      14.676   6.709  -9.035  0.00  0.00    +0.068 C 
ATOM     23  C   UNL     1      14.950   7.875  -9.636  0.00  0.00    +0.015 C 
BRANCH  23  24
ATOM     24  C   UNL     1      14.994   8.033 -11.076  0.00  0.00    +0.001 C 
ATOM     25  C   UNL     1      15.241   9.201 -11.686  0.00  0.00    +0.001 C 
BRANCH  25  26
ATOM     26  C   UNL     1      15.259   9.357 -13.130  0.00  0.00    +0.009 C 
ATOM     27  C   UNL     1      15.485  10.532 -13.731  0.00  0.00    +0.060 C 
BRANCH  27  28
ATOM     28  C   UNL     1      15.512  10.683 -15.148  0.00  0.00    -0.074 C 
ATOM     29  C   UNL     1      15.562  10.877 -16.330  0.00  0.00    -0.101 C 
ATOM     30  C   UNL     1      15.642  11.164 -17.764  0.00  0.00    +0.106 C 
ENDBRANCH  27  28
ENDBRANCH  25  26
ENDBRANCH  23  24
ENDBRANCH  20  22
ENDBRANCH  19  20
ENDBRANCH   4  19
TORSDOF 14
