REMARK  Name = 
REMARK  6 active torsions:
REMARK  status: ('A' for Active; 'I' for Inactive)
REMARK    1  A    between atoms: C_1  and  C_2
REMARK    2  A    between atoms: C_9  and  C_24
REMARK    3  A    between atoms: C_18  and  C_19
REMARK    4  A    between atoms: C_19  and  C_20
REMARK    5  A    between atoms: C_20  and  C_21
REMARK    6  A    between atoms: C_22  and  O_23
REMARK                            x       y       z     vdW  Elec       q    Type
REMARK                         _______ _______ _______ _____ _____    ______ ____
ROOT
ATOM      1  C   UNL     1       1.406   0.511   3.458  0.00  0.00    +0.032 C 
ATOM      2  C   UNL     1       1.936   0.537   2.041  0.00  0.00    +0.090 C 
ATOM      3  N   UNL     1       3.261   1.114   1.966  0.00  0.00    -0.341 N 
ATOM      4  C   UNL     1       1.139   1.358   1.064  0.00  0.00    -0.005 C 
ATOM      5  C   UNL     1       1.607   1.214  -0.183  0.00  0.00    +0.009 C 
ATOM      6  C   UNL     1       3.108   1.293  -0.453  0.00  0.00    +0.012 C 
ATOM      7  C   UNL     1       3.902   1.186   0.693  0.00  0.00    +0.014 C 
ATOM      8  C   UNL     1       5.435   1.176   0.991  0.00  0.00    +0.054 C 
ATOM      9  C   UNL     1       6.091  -0.213   1.375  0.00  0.00    -0.009 C 
ATOM     10  C   UNL     1       7.643  -0.157   1.471  0.00  0.00    +0.003 C 
ATOM     11  C   UNL     1       8.392  -0.582   0.206  0.00  0.00    +0.000 C 
ATOM     12  C   UNL     1       8.238   0.421  -0.931  0.00  0.00    +0.000 C 
ATOM     13  C   UNL     1       7.204  -0.052  -1.940  0.00  0.00    +0.002 C 
ATOM     14  C   UNL     1       6.954   1.016  -3.006  0.00  0.00    +0.019 C 
ATOM     15  C   UNL     1       5.481   1.076  -3.338  0.00  0.00    +0.101 C 
ATOM     16  N   UNL     1       4.771   1.777  -2.268  0.00  0.00    -0.344 N 
ATOM     17  C   UNL     1       3.469   1.458  -1.916  0.00  0.00    +0.032 C 
ATOM     18  C   UNL     1       2.610   1.393  -2.980  0.00  0.00    -0.003 C 
ATOM     19  C   UNL     1       5.641  -0.798   2.732  0.00  0.00    +0.008 C 
ATOM     20  H   UNL     1       3.295   2.040   2.398  0.00  0.00    +0.146 HD
ATOM     21  H   UNL     1       5.338   2.081  -1.492  0.00  0.00    +0.146 HD
ENDROOT
BRANCH  18  22
ATOM     22  C   UNL     1       1.146   1.066  -3.205  0.00  0.00    +0.033 C 
BRANCH  22  23
ATOM     23  C   UNL     1       0.832   0.487  -4.614  0.00  0.00    +0.034 C 
BRANCH  23  24
ATOM     24  C   UNL     1       1.403  -0.861  -4.997  0.00  0.00    +0.011 C 
ATOM     25  C   UNL     1       2.147  -1.661  -4.225  0.00  0.00    +0.179 C 
BRANCH  25  26
ATOM     26  O   UNL     1       2.659  -2.854  -4.620  0.00  0.00    -0.515 OA
ATOM     27  H   UNL     1       2.388  -3.038  -5.536  0.00  0.00    +0.291 HD
ENDBRANCH  25  26
ENDBRANCH  23  24
ENDBRANCH  22  23
ENDBRANCH  18  22
TORSDOF 4
