REMARK  Name = 
REMARK  4 active torsions:
REMARK  status: ('A' for Active; 'I' for Inactive)
REMARK    1  A    between atoms: C_2  and  C_3
REMARK    2  A    between atoms: C_3  and  C_4
REMARK    3  A    between atoms: C_6  and  N_7
REMARK    4  A    between atoms: C_16  and  C_17
REMARK                            x       y       z     vdW  Elec       q    Type
REMARK                         _______ _______ _______ _____ _____    ______ ____
ROOT
ATOM      1  N   UNL     1       1.767  -0.534   1.700  0.00  0.00    -0.295 N 
ATOM      2  C   UNL     1       2.704   0.278   2.300  0.00  0.00    +0.319 C 
ATOM      3  O   UNL     1       3.064   1.349   1.805  0.00  0.00    -0.251 OA
ATOM      4  N   UNL     1       3.208  -0.148   3.528  0.00  0.00    -0.202 N 
ATOM      5  C   UNL     1       2.846  -1.356   4.254  0.00  0.00    +0.165 C 
ATOM      6  N   UNL     1       3.799   0.901   4.309  0.00  0.00    -0.250 N 
ATOM      7  C   UNL     1       5.141   0.681   4.520  0.00  0.00    +0.199 C 
ATOM      8  N   UNL     1       5.778  -0.335   4.990  0.00  0.00    -0.247 NA
ATOM      9  C   UNL     1       5.079  -1.366   5.539  0.00  0.00    +0.114 C 
ATOM     10  C   UNL     1       3.832  -1.818   5.308  0.00  0.00    -0.020 C 
ATOM     11  H   UNL     1       1.366  -1.280   2.248  0.00  0.00    +0.151 HD
ATOM     12  H   UNL     1       3.626   1.797   3.841  0.00  0.00    +0.171 HD
ENDROOT
BRANCH  10  13
ATOM     13  C   UNL     1       3.328  -2.909   6.236  0.00  0.00    +0.092 C 
ATOM     14  C   UNL     1       2.951  -4.199   5.522  0.00  0.00    +0.047 C 
ATOM     15  N   UNL     1       3.635  -4.754   4.575  0.00  0.00    -0.303 NA
ATOM     16  C   UNL     1       2.036  -2.593   6.980  0.00  0.00    -0.059 C 
ATOM     17  C   UNL     1       1.574  -1.375   7.308  0.00  0.00    +0.009 C 
ATOM     18  C   UNL     1       1.250  -3.864   7.187  0.00  0.00    +0.067 C 
ATOM     19  C   UNL     1       1.699  -4.773   6.093  0.00  0.00    -0.029 C 
ATOM     20  C   UNL     1       1.115  -5.878   5.638  0.00  0.00    +0.014 C 
ATOM     21  H   UNL     1       4.482  -4.202   4.369  0.00  0.00    +0.186 HD
ENDBRANCH  10  13
BRANCH   1  25
ATOM     22  C   UNL     1       0.010   0.803   0.391  0.00  0.00    +0.026 C 
ATOM     23  C   UNL     1      -0.990  -0.384   0.431  0.00  0.00    -0.008 C 
ATOM     24  C   UNL     1       0.151  -1.262  -0.144  0.00  0.00    +0.026 C 
ATOM     25  C   UNL     1       1.174  -0.218   0.373  0.00  0.00    +0.075 C 
BRANCH  23  26
ATOM     26  C   UNL     1      -2.251  -0.249  -0.421  0.00  0.00    +0.000 C 
ATOM     27  C   UNL     1      -3.136  -1.479  -0.272  0.00  0.00    +0.004 C 
ENDBRANCH  23  26
ENDBRANCH   1  25
TORSDOF 3
