REMARK  Name = 
REMARK  1 active torsions:
REMARK  status: ('A' for Active; 'I' for Inactive)
REMARK    1  A    between atoms: C_15  and  S_16
REMARK                            x       y       z     vdW  Elec       q    Type
REMARK                         _______ _______ _______ _____ _____    ______ ____
ROOT
ATOM      1  C   UNL     1      -0.645   0.796   1.355  0.00  0.00    +0.052 C 
ATOM      2  C   UNL     1       0.217   0.098   2.485  0.00  0.00    +0.002 C 
ATOM      3  C   UNL     1       0.111  -1.366   2.106  0.00  0.00    +0.051 C 
ATOM      4  C   UNL     1      -0.314   0.705   3.813  0.00  0.00    +0.120 C 
ATOM      5  C   UNL     1       1.748   0.348   2.793  0.00  0.00    +0.080 C 
ATOM      6  C   UNL     1       1.768   1.671   3.510  0.00  0.00    +0.094 C 
ATOM      7  N   UNL     1       2.840   2.379   3.618  0.00  0.00    -0.289 NA
ATOM      8  N   UNL     1       0.469   2.014   3.898  0.00  0.00    -0.288 N 
ATOM      9  C   UNL     1      -0.042   3.123   3.160  0.00  0.00    +0.128 C 
ATOM     10  C   UNL     1       0.007   2.956   1.862  0.00  0.00    -0.101 C 
ATOM     11  C   UNL     1       0.018   2.048   0.916  0.00  0.00    -0.004 C 
ATOM     12  C   UNL     1       1.162   1.785   0.050  0.00  0.00    +0.012 C 
ATOM     13  C   UNL     1       1.679   0.603  -0.359  0.00  0.00    +0.002 C 
ATOM     14  C   UNL     1       1.370  -0.838  -0.192  0.00  0.00    +0.010 C 
ATOM     15  C   UNL     1       0.801  -1.660   0.740  0.00  0.00    -0.017 C 
ATOM     16  H   UNL     1       3.626   1.909   3.159  0.00  0.00    +0.188 HD
ENDROOT
BRANCH  15  17
ATOM     17  S   UNL     1       0.796  -3.402   0.387  0.00  0.00    -0.147 S 
ATOM     18  H   UNL     1       1.553  -3.428  -0.720  0.00  0.00    +0.107 HD
ENDBRANCH  15  17
TORSDOF 1
