REMARK  Name = 
REMARK  0 active torsions:
REMARK  status: ('A' for Active; 'I' for Inactive)
REMARK                            x       y       z     vdW  Elec       q    Type
REMARK                         _______ _______ _______ _____ _____    ______ ____
ROOT
ATOM      1  C   UNL     1       5.789  -0.544   1.199  0.00  0.00    +0.035 C 
ATOM      2  C   UNL     1       6.953  -0.288   1.388  0.00  0.00    -0.073 C 
ATOM      3  C   UNL     1       8.289   0.306   1.643  0.00  0.00    +0.125 C 
ATOM      4  C   UNL     1       8.319   1.292   2.826  0.00  0.00    -0.043 C 
ATOM      5  C   UNL     1       9.452   1.546   3.502  0.00  0.00    +0.013 C 
ATOM      6  C   UNL     1       7.070   1.920   3.253  0.00  0.00    +0.004 C 
ATOM      7  C   UNL     1       6.269   2.501   2.339  0.00  0.00    +0.000 C 
ATOM      8  C   UNL     1       4.848   2.163   2.334  0.00  0.00    +0.002 C 
ATOM      9  C   UNL     1       4.322   1.860   1.131  0.00  0.00    +0.020 C 
ATOM     10  C   UNL     1       3.763   0.477   1.041  0.00  0.00    +0.122 C 
ATOM     11  N   UNL     1       4.452  -0.628   1.046  0.00  0.00    -0.205 NA
ENDROOT
TORSDOF 0
