REMARK  Name = 
REMARK  4 active torsions:
REMARK  status: ('A' for Active; 'I' for Inactive)
REMARK    1  A    between atoms: C_2  and  C_3
REMARK    2  A    between atoms: C_5  and  C_6
REMARK    3  A    between atoms: C_6  and  N_7
REMARK    4  A    between atoms: N_7  and  C_8
REMARK                            x       y       z     vdW  Elec       q    Type
REMARK                         _______ _______ _______ _____ _____    ______ ____
ROOT
ATOM      1  C   UNL     1       0.308   1.112  -0.131  0.00  0.00    +0.038 C 
ATOM      2  C   UNL     1      -1.036   0.415   0.154  0.00  0.00    +0.052 C 
ATOM      3  C   UNL     1      -2.174   0.694  -0.808  0.00  0.00    +0.024 C 
ATOM      4  N   UNL     1      -0.376  -0.890  -0.103  0.00  0.00    -0.309 NA
ATOM      5  C   UNL     1       0.950  -0.257   0.159  0.00  0.00    +0.069 C 
ATOM      6  H   UNL     1      -0.469  -1.213  -1.066  0.00  0.00    +0.122 HD
ENDROOT
BRANCH   5   7
ATOM      7  C   UNL     1       1.463  -0.511   1.588  0.00  0.00    +0.099 C 
BRANCH   7   8
ATOM      8  N   UNL     1       1.567  -1.945   1.906  0.00  0.00    -0.318 NA
ATOM      9  C   UNL     1       2.568  -2.625   1.096  0.00  0.00    +0.101 C 
ATOM     10  H   UNL     1       0.650  -2.358   1.714  0.00  0.00    +0.122 HD
ENDBRANCH   7   8
ENDBRANCH   5   7
TORSDOF 2
