REMARK  Name = 
REMARK  4 active torsions:
REMARK  status: ('A' for Active; 'I' for Inactive)
REMARK    1  A    between atoms: N_15  and  N_16
REMARK    2  A    between atoms: N_16  and  N_17
REMARK    3  A    between atoms: N_17  and  C_18
REMARK    4  A    between atoms: C_25  and  C_26
REMARK                            x       y       z     vdW  Elec       q    Type
REMARK                         _______ _______ _______ _____ _____    ______ ____
ROOT
ATOM      1  C   UNL     1       5.643  -5.922   2.074  0.00  0.00    +0.044 C 
ATOM      2  C   UNL     1       6.269  -6.951   3.039  0.00  0.00    -0.016 C 
ATOM      3  C   UNL     1       7.443  -6.261   3.049  0.00  0.00    -0.021 C 
ATOM      4  C   UNL     1       7.329  -6.033   1.565  0.00  0.00    +0.052 C 
ATOM      5  C   UNL     1       6.754  -4.928   0.674  0.00  0.00    +0.001 C 
ATOM      6  C   UNL     1       5.725  -5.860   0.520  0.00  0.00    +0.016 C 
ATOM      7  N   UNL     1       5.023  -6.538  -0.363  0.00  0.00    -0.324 N 
ATOM      8  C   UNL     1       3.902  -7.240   0.112  0.00  0.00    +0.068 C 
ATOM      9  C   UNL     1       2.739  -6.573   0.233  0.00  0.00    -0.002 C 
ATOM     10  C   UNL     1       2.427  -5.752   1.491  0.00  0.00    +0.061 C 
ATOM     11  C   UNL     1       3.221  -6.036   2.790  0.00  0.00    +0.024 C 
ATOM     12  C   UNL     1       4.471  -5.123   2.709  0.00  0.00    +0.054 C 
ATOM     13  C   UNL     1       3.952  -3.981   1.881  0.00  0.00    +0.052 C 
ATOM     14  C   UNL     1       2.847  -4.342   1.185  0.00  0.00    +0.054 C 
ATOM     15  N   UNL     1       2.829  -3.180   1.885  0.00  0.00    -0.224 N 
ATOM     16  H   UNL     1       4.876  -6.120  -1.283  0.00  0.00    +0.151 HD
ENDROOT
BRANCH  15  17
ATOM     17  N   UNL     1       1.895  -3.095   2.903  0.00  0.00    -0.157 NA
ATOM     18  H   UNL     1       2.293  -3.388   3.797  0.00  0.00    +0.168 HD
BRANCH  17  19
ATOM     19  N   UNL     1       1.515  -1.762   3.002  0.00  0.00    -0.271 N 
ATOM     20  H   UNL     1       2.166  -1.101   2.580  0.00  0.00    +0.167 HD
BRANCH  19  21
ATOM     21  C   UNL     1       0.203  -1.363   2.983  0.00  0.00    +0.085 C 
ATOM     22  C   UNL     1      -0.249  -0.093   3.044  0.00  0.00    -0.051 C 
ATOM     23  C   UNL     1      -1.720   0.220   3.197  0.00  0.00    +0.062 C 
ATOM     24  C   UNL     1       0.657   1.106   3.175  0.00  0.00    +0.032 C 
ATOM     25  C   UNL     1       0.474   1.840   4.508  0.00  0.00    +0.008 C 
ATOM     26  C   UNL     1       0.090   0.932   5.684  0.00  0.00    +0.027 C 
ATOM     27  C   UNL     1      -1.352   0.481   5.706  0.00  0.00    -0.028 C 
ATOM     28  C   UNL     1      -2.157   0.218   4.653  0.00  0.00    -0.073 C 
ATOM     29  C   UNL     1      -3.596  -0.172   4.869  0.00  0.00    +0.039 C 
ENDBRANCH  19  21
ENDBRANCH  17  19
ENDBRANCH  15  17
TORSDOF 3
