REMARK  Name = 
REMARK  15 active torsions:
REMARK  status: ('A' for Active; 'I' for Inactive)
REMARK    1  A    between atoms: C_3  and  C_4
REMARK    2  A    between atoms: C_3  and  C_6
REMARK    3  A    between atoms: C_4  and  C_5
REMARK    4  A    between atoms: C_7  and  C_8
REMARK    5  A    between atoms: C_9  and  N_10
REMARK    6  A    between atoms: N_10  and  C_11
REMARK    7  A    between atoms: C_16  and  C_17
REMARK    8  A    between atoms: N_18  and  C_19
REMARK    9  A    between atoms: C_19  and  C_20
REMARK   10  A    between atoms: C_19  and  C_21
REMARK   11  A    between atoms: C_21  and  C_22
REMARK   12  A    between atoms: C_22  and  C_23
REMARK   13  A    between atoms: C_26  and  C_27
REMARK   14  A    between atoms: C_27  and  C_28
REMARK   15  A    between atoms: C_28  and  N_29
REMARK                            x       y       z     vdW  Elec       q    Type
REMARK                         _______ _______ _______ _____ _____    ______ ____
ROOT
ATOM      1  C   UNL     1      10.210   3.883  -0.439  0.00  0.00    +0.097 C 
ATOM      2  C   UNL     1      10.669   5.069   0.442  0.00  0.00    +0.063 C 
ATOM      3  C   UNL     1      10.656   3.998  -1.874  0.00  0.00    -0.005 C 
ATOM      4  C   UNL     1      11.066   5.153  -2.420  0.00  0.00    -0.002 C 
ATOM      5  C   UNL     1      11.067   6.377  -1.654  0.00  0.00    +0.005 C 
ATOM      6  C   UNL     1      10.890   6.349  -0.323  0.00  0.00    -0.028 C 
ENDROOT
BRANCH   1   7
ATOM      7  N   UNL     1       8.755   3.806  -0.473  0.00  0.00    -0.343 N 
ATOM      8  H   UNL     1       8.275   4.608  -0.869  0.00  0.00    +0.146 HD
BRANCH   7  10
ATOM      9  C   UNL     1       6.637   2.703  -0.070  0.00  0.00    +0.015 C 
ATOM     10  C   UNL     1       7.976   2.762  -0.046  0.00  0.00    +0.068 C 
BRANCH   9  12
ATOM     11  C   UNL     1       4.550   1.463   0.363  0.00  0.00    +0.012 C 
ATOM     12  C   UNL     1       5.892   1.547   0.381  0.00  0.00    +0.002 C 
BRANCH  11  15
ATOM     13  C   UNL     1       1.153   0.372   0.683  0.00  0.00    +0.069 C 
ATOM     14  C   UNL     1       2.450   0.384   0.725  0.00  0.00    -0.124 C 
ATOM     15  C   UNL     1       3.757   0.310   0.789  0.00  0.00    -0.006 C 
BRANCH  15  16
ATOM     16  C   UNL     1       4.448  -0.928   1.326  0.00  0.00    +0.040 C 
ATOM     17  C   UNL     1       4.790  -1.952   0.250  0.00  0.00    +0.009 C 
ENDBRANCH  15  16
ENDBRANCH  11  15
ENDBRANCH   9  12
ENDBRANCH   7  10
ENDBRANCH   1   7
BRANCH   6  18
ATOM     18  C   UNL     1      10.888   7.624   0.424  0.00  0.00    +0.108 C 
ATOM     19  N   UNL     1      10.702   7.667   1.696  0.00  0.00    -0.288 NA
BRANCH  19  20
ATOM     20  C   UNL     1      10.706   9.011   2.288  0.00  0.00    +0.102 C 
ATOM     21  C   UNL     1       9.266   9.516   2.316  0.00  0.00    +0.032 C 
BRANCH  20  22
ATOM     22  C   UNL     1      11.297   8.902   3.706  0.00  0.00    +0.031 C 
BRANCH  22  23
ATOM     23  C   UNL     1      12.740   8.428   3.619  0.00  0.00    +0.042 C 
BRANCH  23  24
ATOM     24  C   UNL     1      13.433   8.201   4.959  0.00  0.00    -0.020 C 
ATOM     25  C   UNL     1      14.344   7.387   5.216  0.00  0.00    -0.124 C 
ATOM     26  C   UNL     1      14.547   6.403   5.968  0.00  0.00    +0.032 C 
ATOM     27  C   UNL     1      12.940   7.093   6.299  0.00  0.00    +0.054 C 
BRANCH  27  28
ATOM     28  C   UNL     1      12.904   7.729   7.696  0.00  0.00    +0.028 C 
BRANCH  28  29
ATOM     29  C   UNL     1      11.520   8.317   7.916  0.00  0.00    +0.078 C 
BRANCH  29  30
ATOM     30  N   UNL     1      11.395   8.921   9.234  0.00  0.00    -0.330 NA
ATOM     31  H   UNL     1      11.542   8.213   9.953  0.00  0.00    +0.118 HD
ATOM     32  H   UNL     1      10.435   9.245   9.353  0.00  0.00    +0.118 HD
ENDBRANCH  29  30
ENDBRANCH  28  29
ENDBRANCH  27  28
ENDBRANCH  23  24
ENDBRANCH  22  23
ENDBRANCH  20  22
ENDBRANCH  19  20
ENDBRANCH   6  18
TORSDOF 13
