REMARK  Name = 
REMARK  8 active torsions:
REMARK  status: ('A' for Active; 'I' for Inactive)
REMARK    1  A    between atoms: C_1  and  N_2
REMARK    2  A    between atoms: N_2  and  C_3
REMARK    3  A    between atoms: C_5  and  C_6
REMARK    4  A    between atoms: C_6  and  C_7
REMARK    5  A    between atoms: C_7  and  C_8
REMARK    6  A    between atoms: C_10  and  C_11
REMARK    7  A    between atoms: C_12  and  C_13
REMARK    8  A    between atoms: C_16  and  C_17
REMARK                            x       y       z     vdW  Elec       q    Type
REMARK                         _______ _______ _______ _____ _____    ______ ____
ROOT
ATOM      1  C   UNL     1       3.150  -1.408  -0.189  0.00  0.00    +0.073 C 
ATOM      2  C   UNL     1       4.473  -1.198  -0.212  0.00  0.00    -0.001 C 
ATOM      3  C   UNL     1       5.187  -2.453  -0.503  0.00  0.00    +0.054 C 
ATOM      4  C   UNL     1       6.657  -2.401  -0.493  0.00  0.00    -0.022 C 
ATOM      5  C   UNL     1       7.239  -1.220  -0.306  0.00  0.00    +0.115 C 
ATOM      6  N   UNL     1       6.621  -0.005  -0.115  0.00  0.00    -0.255 NA
ATOM      7  C   UNL     1       5.319   0.069  -0.085  0.00  0.00    +0.068 C 
ENDROOT
BRANCH   1   9
ATOM      8  C   UNL     1       1.491   0.411  -0.842  0.00  0.00    +0.125 C 
ATOM      9  N   UNL     1       2.282  -0.430   0.020  0.00  0.00    -0.352 N 
ATOM     10  H   UNL     1       2.491  -0.312   0.985  0.00  0.00    +0.145 HD
ENDBRANCH   1   9
BRANCH   4  11
ATOM     11  C   UNL     1       7.356  -3.674  -0.630  0.00  0.00    +0.001 C 
ATOM     12  C   UNL     1       8.520  -3.859  -1.270  0.00  0.00    -0.030 C 
ATOM     13  C   UNL     1       9.150  -5.192  -1.454  0.00  0.00    +0.035 C 
ENDBRANCH   4  11
BRANCH   7  14
ATOM     14  C   UNL     1       4.584   1.442   0.146  0.00  0.00    +0.020 C 
ATOM     15  C   UNL     1       4.699   2.779  -0.070  0.00  0.00    +0.010 C 
ENDBRANCH   7  14
BRANCH   3  16
ATOM     16  C   UNL     1       4.721  -2.911  -1.888  0.00  0.00    +0.017 C 
BRANCH  16  17
ATOM     17  C   UNL     1       5.325  -4.214  -2.310  0.00  0.00    +0.027 C 
BRANCH  17  18
ATOM     18  C   UNL     1       4.929  -4.661  -3.639  0.00  0.00    -0.034 C 
ATOM     19  C   UNL     1       5.817  -4.847  -4.612  0.00  0.00    +0.004 C 
ENDBRANCH  17  18
ENDBRANCH  16  17
ENDBRANCH   3  16
TORSDOF 6
