REMARK  Name = 
REMARK  7 active torsions:
REMARK  status: ('A' for Active; 'I' for Inactive)
REMARK    1  A    between atoms: C_4  and  C_5
REMARK    2  A    between atoms: C_11  and  C_12
REMARK    3  A    between atoms: C_14  and  C_15
REMARK    4  A    between atoms: C_16  and  C_17
REMARK    5  A    between atoms: C_17  and  C_18
REMARK    6  A    between atoms: C_17  and  C_19
REMARK    7  A    between atoms: C_20  and  C_21
REMARK                            x       y       z     vdW  Elec       q    Type
REMARK                         _______ _______ _______ _____ _____    ______ ____
ROOT
ATOM      1  C   UNL     1      -1.867   0.652   0.697  0.00  0.00    +0.086 C 
ATOM      2  C   UNL     1      -2.093   0.107   2.128  0.00  0.00    +0.051 C 
ATOM      3  C   UNL     1      -1.043   0.812   2.949  0.00  0.00    -0.006 C 
ATOM      4  C   UNL     1      -0.260   1.576   2.181  0.00  0.00    +0.004 C 
ATOM      5  C   UNL     1       0.935   2.366   2.621  0.00  0.00    +0.060 C 
ATOM      6  N   UNL     1      -0.644   1.526   0.833  0.00  0.00    -0.307 N 
ATOM      7  C   UNL     1       0.288   1.619  -0.194  0.00  0.00    +0.071 C 
ATOM      8  C   UNL     1       1.240   0.710  -0.435  0.00  0.00    -0.007 C 
ATOM      9  C   UNL     1       1.448  -0.471   0.415  0.00  0.00    +0.024 C 
ATOM     10  C   UNL     1       1.730  -1.814  -0.163  0.00  0.00    +0.020 C 
ATOM     11  C   UNL     1       0.360  -1.556   0.473  0.00  0.00    -0.002 C 
ATOM     12  C   UNL     1      -0.825  -1.556  -0.544  0.00  0.00    +0.002 C 
ATOM     13  C   UNL     1      -1.467  -2.958  -0.622  0.00  0.00    +0.009 C 
ATOM     14  C   UNL     1      -1.829  -0.320  -0.544  0.00  0.00    +0.020 C 
ENDROOT
BRANCH  11  15
ATOM     15  C   UNL     1       0.147  -2.293   1.766  0.00  0.00    -0.027 C 
ATOM     16  C   UNL     1       0.767  -2.158   2.948  0.00  0.00    +0.004 C 
ENDBRANCH  11  15
BRANCH  14  17
ATOM     17  C   UNL     1      -3.226  -0.656  -1.212  0.00  0.00    +0.014 C 
ATOM     18  C   UNL     1      -4.247   0.488  -1.189  0.00  0.00    +0.012 C 
BRANCH  17  19
ATOM     19  C   UNL     1      -3.039  -1.066  -2.689  0.00  0.00    -0.015 C 
ATOM     20  C   UNL     1      -3.869  -1.904  -3.323  0.00  0.00    +0.055 C 
BRANCH  20  21
ATOM     21  C   UNL     1      -3.672  -2.460  -4.724  0.00  0.00    -0.078 C 
ATOM     22  C   UNL     1      -3.504  -2.936  -5.926  0.00  0.00    +0.009 C 
ENDBRANCH  20  21
ENDBRANCH  17  19
ENDBRANCH  14  17
TORSDOF 4
