REMARK  Name = 
REMARK  24 active torsions:
REMARK  status: ('A' for Active; 'I' for Inactive)
REMARK    1  A    between atoms: C_1  and  C_2
REMARK    2  A    between atoms: C_2  and  C_3
REMARK    3  A    between atoms: C_3  and  C_4
REMARK    4  A    between atoms: C_4  and  C_5
REMARK    5  A    between atoms: C_5  and  C_6
REMARK    6  A    between atoms: C_6  and  C_7
REMARK    7  A    between atoms: C_7  and  C_8
REMARK    8  A    between atoms: C_8  and  C_9
REMARK    9  A    between atoms: C_14  and  C_15
REMARK   10  A    between atoms: C_15  and  C_16
REMARK   11  A    between atoms: C_15  and  O_33
REMARK   12  A    between atoms: C_16  and  N_17
REMARK   13  A    between atoms: N_17  and  C_18
REMARK   14  A    between atoms: C_18  and  C_19
REMARK   15  A    between atoms: C_20  and  C_21
REMARK   16  A    between atoms: C_23  and  C_24
REMARK   17  A    between atoms: C_24  and  C_25
REMARK   18  A    between atoms: C_25  and  C_26
REMARK   19  A    between atoms: C_26  and  C_27
REMARK   20  A    between atoms: C_27  and  C_28
REMARK   21  A    between atoms: C_28  and  C_29
REMARK   22  A    between atoms: C_29  and  C_30
REMARK   23  A    between atoms: O_33  and  C_34
REMARK   24  A    between atoms: C_34  and  C_35
REMARK                            x       y       z     vdW  Elec       q    Type
REMARK                         _______ _______ _______ _____ _____    ______ ____
ROOT
ATOM      1  C   UNL     1       6.748  -7.064  -1.023  0.00  0.00    +0.162 C 
ENDROOT
BRANCH   1   7
ATOM      2  C   UNL     1       9.289  -7.026  -0.173  0.00  0.00    -0.042 A 
ATOM      3  C   UNL     1      10.633  -6.837  -0.580  0.00  0.00    +0.004 A 
ATOM      4  C   UNL     1      10.980  -6.479  -1.884  0.00  0.00    +0.000 A 
ATOM      5  C   UNL     1       9.995  -6.331  -2.840  0.00  0.00    +0.000 A 
ATOM      6  C   UNL     1       8.668  -6.531  -2.482  0.00  0.00    +0.006 A 
ATOM      7  C   UNL     1       8.271  -6.869  -1.157  0.00  0.00    -0.015 A 
BRANCH   2   8
ATOM      8  C   UNL     1       9.059  -7.498   1.255  0.00  0.00    +0.035 C 
BRANCH   8   9
ATOM      9  C   UNL     1      10.127  -7.233   2.340  0.00  0.00    +0.005 C 
BRANCH   9  10
ATOM     10  C   UNL     1      10.309  -5.747   2.679  0.00  0.00    +0.000 C 
BRANCH  10  11
ATOM     11  C   UNL     1      11.309  -5.509   3.819  0.00  0.00    +0.000 C 
BRANCH  11  12
ATOM     12  C   UNL     1      12.749  -5.968   3.556  0.00  0.00    -0.000 C 
BRANCH  12  13
ATOM     13  C   UNL     1      13.420  -5.219   2.403  0.00  0.00    -0.000 C 
BRANCH  13  15
ATOM     14  C   UNL     1      15.535  -4.902   1.075  0.00  0.00    +0.004 C 
ATOM     15  C   UNL     1      14.877  -5.650   2.224  0.00  0.00    -0.003 C 
ENDBRANCH  13  15
ENDBRANCH  12  13
ENDBRANCH  11  12
ENDBRANCH  10  11
ENDBRANCH   9  10
ENDBRANCH   8   9
ENDBRANCH   2   8
ENDBRANCH   1   7
BRANCH   1  16
ATOM     16  O   UNL     1       6.025  -6.005  -1.693  0.00  0.00    -0.371 OA
BRANCH  16  17
ATOM     17  C   UNL     1       6.121  -4.713  -1.100  0.00  0.00    +0.157 C 
ATOM     18  C   UNL     1       5.277  -3.764  -1.932  0.00  0.00    +0.034 C 
ENDBRANCH  16  17
ENDBRANCH   1  16
BRANCH   1  19
ATOM     19  C   UNL     1       6.131  -7.382   0.355  0.00  0.00    +0.117 C 
BRANCH  19  20
ATOM     20  N   UNL     1       4.670  -7.570   0.363  0.00  0.00    -0.310 NA
ATOM     21  H   UNL     1       4.412  -8.299  -0.300  0.00  0.00    +0.122 HD
BRANCH  20  22
ATOM     22  C   UNL     1       4.245  -7.941   1.706  0.00  0.00    +0.108 C 
BRANCH  22  23
ATOM     23  C   UNL     1       2.764  -8.121   1.746  0.00  0.00    -0.012 C 
ATOM     24  C   UNL     1       2.196  -9.284   2.093  0.00  0.00    +0.001 C 
BRANCH  24  25
ATOM     25  C   UNL     1       0.782  -9.442   2.217  0.00  0.00    -0.044 C 
ATOM     26  C   UNL     1       0.270 -10.329   3.071  0.00  0.00    -0.015 C 
ATOM     27  C   UNL     1      -0.027 -10.517   1.689  0.00  0.00    +0.042 C 
BRANCH  27  28
ATOM     28  C   UNL     1      -1.420 -10.282   1.203  0.00  0.00    +0.012 C 
BRANCH  28  29
ATOM     29  C   UNL     1      -1.517 -10.481  -0.310  0.00  0.00    +0.001 C 
BRANCH  29  30
ATOM     30  C   UNL     1      -2.951 -10.301  -0.794  0.00  0.00    +0.000 C 
BRANCH  30  31
ATOM     31  C   UNL     1      -3.061 -10.513  -2.303  0.00  0.00    +0.000 C 
BRANCH  31  32
ATOM     32  C   UNL     1      -4.508 -10.329  -2.750  0.00  0.00    +0.003 C 
BRANCH  32  33
ATOM     33  C   UNL     1      -4.689 -10.546  -4.250  0.00  0.00    +0.034 C 
BRANCH  33  34
ATOM     34  C   UNL     1      -6.129 -10.374  -4.622  0.00  0.00    +0.144 C 
ATOM     35  O   UNL     1      -6.394 -10.471  -6.026  0.00  0.00    -0.372 OA
ATOM     36  C   UNL     1      -6.594  -9.186  -5.420  0.00  0.00    +0.191 C 
ENDBRANCH  33  34
ENDBRANCH  32  33
ENDBRANCH  31  32
ENDBRANCH  30  31
ENDBRANCH  29  30
ENDBRANCH  28  29
ENDBRANCH  27  28
ENDBRANCH  24  25
ENDBRANCH  22  23
ENDBRANCH  20  22
ENDBRANCH  19  20
ENDBRANCH   1  19
TORSDOF 22
