REMARK  Name = 
REMARK  13 active torsions:
REMARK  status: ('A' for Active; 'I' for Inactive)
REMARK    1  A    between atoms: C_4  and  N_7
REMARK    2  A    between atoms: N_7  and  C_8
REMARK    3  A    between atoms: C_8  and  O_9
REMARK    4  A    between atoms: O_9  and  C_10
REMARK    5  A    between atoms: C_10  and  C_11
REMARK    6  A    between atoms: C_21  and  C_25
REMARK    7  A    between atoms: C_23  and  N_24
REMARK    8  A    between atoms: C_25  and  C_26
REMARK    9  A    between atoms: C_25  and  C_27
REMARK   10  A    between atoms: C_27  and  N_28
REMARK   11  A    between atoms: N_28  and  C_29
REMARK   12  A    between atoms: C_29  and  C_30
REMARK   13  A    between atoms: C_30  and  C_31
REMARK                            x       y       z     vdW  Elec       q    Type
REMARK                         _______ _______ _______ _____ _____    ______ ____
ROOT
ATOM      1  C   UNL     1       3.676   1.385   1.064  0.00  0.00    +0.227 C 
ATOM      2  C   UNL     1       4.226   1.554   2.237  0.00  0.00    -0.055 C 
ATOM      3  C   UNL     1       4.599   1.774   3.479  0.00  0.00    -0.000 C 
ATOM      4  C   UNL     1       5.607   2.785   3.723  0.00  0.00    +0.008 C 
ATOM      5  C   UNL     1       5.405   3.981   4.296  0.00  0.00    -0.026 C 
ATOM      6  C   UNL     1       4.097   4.606   4.702  0.00  0.00    +0.032 C 
ATOM      7  C   UNL     1       3.830   4.587   6.218  0.00  0.00    +0.040 C 
ATOM      8  C   UNL     1       2.630   3.803   6.719  0.00  0.00    -0.034 C 
ATOM      9  C   UNL     1       1.385   4.319   6.736  0.00  0.00    +0.014 C 
ATOM     10  C   UNL     1       4.337   0.807   4.602  0.00  0.00    +0.051 C 
ATOM     11  C   UNL     1       2.991   0.833   5.390  0.00  0.00    +0.022 C 
ATOM     12  C   UNL     1       3.108   1.361   6.822  0.00  0.00    -0.000 C 
ATOM     13  C   UNL     1       2.892   2.550   7.413  0.00  0.00    +0.024 C 
ENDROOT
BRANCH  13  14
ATOM     14  N   UNL     1       2.849   2.643   8.789  0.00  0.00    -0.358 N 
ATOM     15  H   UNL     1       3.359   1.931   9.298  0.00  0.00    +0.142 HD
ATOM     16  H   UNL     1       2.951   3.585   9.153  0.00  0.00    +0.142 HD
ENDBRANCH  13  14
BRANCH   1  17
ATOM     17  N   UNL     1       2.886   0.259   0.934  0.00  0.00    -0.299 N 
ATOM     18  H   UNL     1       1.931   0.576   0.772  0.00  0.00    +0.150 HD
BRANCH  17  22
ATOM     19  C   UNL     1       4.199  -3.649   0.229  0.00  0.00    +0.054 C 
ATOM     20  C   UNL     1       2.765  -3.275   0.483  0.00  0.00    -0.025 C 
ATOM     21  C   UNL     1       2.311  -2.010   0.403  0.00  0.00    -0.005 C 
ATOM     22  C   UNL     1       3.188  -0.837   0.022  0.00  0.00    +0.119 C 
ATOM     23  C   UNL     1       4.653  -1.196   0.046  0.00  0.00    -0.005 C 
ATOM     24  C   UNL     1       5.109  -2.458   0.127  0.00  0.00    -0.025 C 
ENDBRANCH  17  22
ENDBRANCH   1  17
BRANCH  11  25
ATOM     25  C   UNL     1       1.636   1.050   4.624  0.00  0.00    +0.007 C 
ATOM     26  C   UNL     1       0.441   0.809   5.573  0.00  0.00    +0.009 C 
BRANCH  25  27
ATOM     27  C   UNL     1       1.473   2.394   3.905  0.00  0.00    +0.084 C 
BRANCH  27  28
ATOM     28  N   UNL     1       0.169   2.623   3.282  0.00  0.00    -0.316 NA
ATOM     29  H   UNL     1      -0.556   2.492   3.985  0.00  0.00    +0.122 HD
BRANCH  28  30
ATOM     30  C   UNL     1       0.095   4.009   2.806  0.00  0.00    +0.080 C 
BRANCH  30  31
ATOM     31  C   UNL     1      -1.276   4.204   2.184  0.00  0.00    +0.012 C 
ATOM     32  C   UNL     1      -1.458   5.604   1.632  0.00  0.00    +0.005 C 
ENDBRANCH  30  31
ENDBRANCH  28  30
ENDBRANCH  27  28
ENDBRANCH  25  27
ENDBRANCH  11  25
BRANCH   1  33
ATOM     33  O   UNL     1       3.295   2.579   0.495  0.00  0.00    -0.474 OA
BRANCH  33  34
ATOM     34  C   UNL     1       2.947   2.523  -0.888  0.00  0.00    +0.228 C 
ATOM     35  C   UNL     1       2.920   3.933  -1.431  0.00  0.00    +0.048 C 
ENDBRANCH  33  34
ENDBRANCH   1  33
TORSDOF 10
