REMARK  Name = 
REMARK  8 active torsions:
REMARK  status: ('A' for Active; 'I' for Inactive)
REMARK    1  A    between atoms: C_1  and  C_2
REMARK    2  A    between atoms: C_2  and  N_3
REMARK    3  A    between atoms: C_4  and  C_5
REMARK    4  A    between atoms: C_5  and  N_6
REMARK    5  A    between atoms: C_7  and  N_8
REMARK    6  A    between atoms: C_11  and  N_12
REMARK    7  A    between atoms: N_12  and  C_13
REMARK    8  A    between atoms: C_15  and  C_16
REMARK                            x       y       z     vdW  Elec       q    Type
REMARK                         _______ _______ _______ _____ _____    ______ ____
ROOT
ATOM      1  N   UNL     1       8.406   3.014  -3.201  0.00  0.00    -0.185 NA
ATOM      2  C   UNL     1       8.878   3.757  -3.990  0.00  0.00    +0.042 C 
ATOM      3  C   UNL     1       9.467   4.473  -4.751  0.00  0.00    -0.034 C 
ATOM      4  C   UNL     1      10.205   5.211  -5.537  0.00  0.00    +0.135 C 
ENDROOT
BRANCH   1   6
ATOM      5  N   UNL     1       6.516   2.129  -2.239  0.00  0.00    -0.266 NA
ATOM      6  C   UNL     1       7.042   2.927  -3.112  0.00  0.00    +0.227 C 
BRANCH   5   7
ATOM      7  C   UNL     1       5.038   2.134  -2.258  0.00  0.00    +0.190 C 
BRANCH   7   9
ATOM      8  N   UNL     1       4.278   4.359  -2.892  0.00  0.00    -0.294 NA
ATOM      9  C   UNL     1       4.490   3.512  -1.936  0.00  0.00    +0.101 C 
BRANCH   8  11
ATOM     10  C   UNL     1       3.550   6.542  -3.693  0.00  0.00    +0.029 C 
ATOM     11  C   UNL     1       3.756   5.660  -2.466  0.00  0.00    +0.138 C 
ENDBRANCH   8  11
ENDBRANCH   7   9
ENDBRANCH   5   7
ENDBRANCH   1   6
BRANCH   4  12
ATOM     12  N   UNL     1       9.675   6.089  -6.445  0.00  0.00    -0.313 N 
ATOM     13  H   UNL     1       8.661   6.145  -6.486  0.00  0.00    +0.152 HD
BRANCH  12  14
ATOM     14  C   UNL     1      10.343   6.910  -7.314  0.00  0.00    +0.124 C 
ATOM     15  C   UNL     1       9.709   7.702  -8.128  0.00  0.00    -0.105 C 
ATOM     16  C   UNL     1       9.124   8.512  -8.963  0.00  0.00    +0.052 C 
BRANCH  16  17
ATOM     17  C   UNL     1       7.688   8.610  -9.063  0.00  0.00    +0.001 C 
ATOM     18  C   UNL     1       7.055   9.433  -9.909  0.00  0.00    +0.009 C 
ENDBRANCH  16  17
ENDBRANCH  12  14
ENDBRANCH   4  12
TORSDOF 7
