REMARK  Name = 
REMARK  13 active torsions:
REMARK  status: ('A' for Active; 'I' for Inactive)
REMARK    1  A    between atoms: C_4  and  C_7
REMARK    2  A    between atoms: C_8  and  C_9
REMARK    3  A    between atoms: C_9  and  C_10
REMARK    4  A    between atoms: C_9  and  C_11
REMARK    5  A    between atoms: C_11  and  C_12
REMARK    6  A    between atoms: C_13  and  C_14
REMARK    7  A    between atoms: C_15  and  N_20
REMARK    8  A    between atoms: N_20  and  C_21
REMARK    9  A    between atoms: C_21  and  C_22
REMARK   10  A    between atoms: C_22  and  C_23
REMARK   11  A    between atoms: C_23  and  C_24
REMARK   12  A    between atoms: C_23  and  C_25
REMARK   13  A    between atoms: C_26  and  C_27
REMARK                            x       y       z     vdW  Elec       q    Type
REMARK                         _______ _______ _______ _____ _____    ______ ____
ROOT
ATOM      1  C   UNL     1      -7.278   6.765  -1.351  0.00  0.00    -0.004 A 
ATOM      2  C   UNL     1      -6.742   7.652  -2.334  0.00  0.00    +0.034 A 
ATOM      3  C   UNL     1      -7.428   8.858  -2.567  0.00  0.00    +0.023 A 
ATOM      4  C   UNL     1      -8.558   9.228  -1.840  0.00  0.00    +0.002 A 
ATOM      5  C   UNL     1      -9.072   8.370  -0.888  0.00  0.00    +0.001 A 
ATOM      6  C   UNL     1      -8.448   7.149  -0.660  0.00  0.00    +0.010 A 
ENDROOT
BRANCH   1   8
ATOM      7  C   UNL     1      -6.733   4.945   0.277  0.00  0.00    -0.026 C 
ATOM      8  C   UNL     1      -6.641   5.476  -0.960  0.00  0.00    +0.005 C 
BRANCH   7   9
ATOM      9  C   UNL     1      -5.954   3.754   0.762  0.00  0.00    +0.034 C 
BRANCH   9  10
ATOM     10  C   UNL     1      -4.430   4.003   0.825  0.00  0.00    +0.012 C 
ATOM     11  C   UNL     1      -3.704   2.709   1.217  0.00  0.00    +0.012 C 
BRANCH  10  13
ATOM     12  C   UNL     1      -3.680   5.096   3.010  0.00  0.00    +0.003 C 
ATOM     13  C   UNL     1      -4.068   5.175   1.725  0.00  0.00    -0.023 C 
BRANCH  12  17
ATOM     14  C   UNL     1      -2.190   8.455   5.421  0.00  0.00    +0.031 C 
ATOM     15  C   UNL     1      -1.984   7.003   5.872  0.00  0.00    +0.032 C 
ATOM     16  C   UNL     1      -2.419   5.962   4.875  0.00  0.00    -0.019 C 
ATOM     17  C   UNL     1      -3.241   6.220   3.834  0.00  0.00    -0.030 C 
ATOM     18  C   UNL     1      -3.734   7.583   3.674  0.00  0.00    +0.003 C 
ATOM     19  C   UNL     1      -3.261   8.618   4.384  0.00  0.00    -0.026 C 
ENDBRANCH  12  17
ENDBRANCH  10  13
ENDBRANCH   9  10
ENDBRANCH   7   9
ENDBRANCH   1   8
BRANCH   2  20
ATOM     20  N   UNL     1      -5.636   7.296  -3.157  0.00  0.00    -0.343 N 
ATOM     21  H   UNL     1      -6.018   6.754  -3.934  0.00  0.00    +0.146 HD
BRANCH  20  22
ATOM     22  C   UNL     1      -4.791   8.384  -3.708  0.00  0.00    +0.102 C 
BRANCH  22  23
ATOM     23  C   UNL     1      -4.004   9.144  -2.629  0.00  0.00    +0.026 C 
BRANCH  23  24
ATOM     24  C   UNL     1      -3.046   8.248  -1.808  0.00  0.00    +0.010 C 
ATOM     25  C   UNL     1      -1.937   7.614  -2.663  0.00  0.00    +0.012 C 
BRANCH  24  26
ATOM     26  C   UNL     1      -2.422   8.926  -0.588  0.00  0.00    -0.028 C 
ATOM     27  C   UNL     1      -2.323  10.236  -0.382  0.00  0.00    -0.034 C 
ATOM     28  C   UNL     1      -1.659  10.898   0.784  0.00  0.00    +0.035 C 
ENDBRANCH  24  26
ENDBRANCH  23  24
ENDBRANCH  22  23
ENDBRANCH  20  22
ENDBRANCH   2  20
TORSDOF 10
