REMARK  Name = 
REMARK  19 active torsions:
REMARK  status: ('A' for Active; 'I' for Inactive)
REMARK    1  A    between atoms: C_1  and  C_2
REMARK    2  A    between atoms: C_2  and  C_3
REMARK    3  A    between atoms: C_4  and  C_5
REMARK    4  A    between atoms: C_6  and  C_7
REMARK    5  A    between atoms: C_8  and  C_9
REMARK    6  A    between atoms: C_10  and  C_11
REMARK    7  A    between atoms: C_12  and  C_13
REMARK    8  A    between atoms: C_13  and  C_14
REMARK    9  A    between atoms: C_14  and  C_15
REMARK   10  A    between atoms: C_15  and  N_16
REMARK   11  A    between atoms: N_18  and  N_19
REMARK   12  A    between atoms: N_19  and  C_20
REMARK   13  A    between atoms: C_20  and  N_21
REMARK   14  A    between atoms: C_20  and  C_22
REMARK   15  A    between atoms: N_24  and  C_25
REMARK   16  A    between atoms: C_25  and  C_26
REMARK   17  A    between atoms: C_25  and  C_27
REMARK   18  A    between atoms: C_27  and  C_28
REMARK   19  A    between atoms: C_28  and  C_29
REMARK                            x       y       z     vdW  Elec       q    Type
REMARK                         _______ _______ _______ _____ _____    ______ ____
ROOT
ATOM      1  N   UNL     1      15.775 -11.221   2.153  0.00  0.00    -0.334 N 
ATOM      2  C   UNL     1      16.505 -12.358   2.386  0.00  0.00    +0.200 C 
ATOM      3  N   UNL     1      16.037 -13.544   2.614  0.00  0.00    -0.178 NA
ATOM      4  H   UNL     1      16.266 -10.335   2.119  0.00  0.00    +0.147 HD
ENDROOT
BRANCH   3   5
ATOM      5  N   UNL     1      16.988 -14.515   2.828  0.00  0.00    -0.247 N 
ATOM      6  H   UNL     1      17.644 -14.240   3.561  0.00  0.00    +0.170 HD
BRANCH   5   7
ATOM      7  C   UNL     1      16.481 -15.850   3.151  0.00  0.00    +0.186 C 
BRANCH   7   8
ATOM      8  C   UNL     1      17.556 -16.868   3.348  0.00  0.00    +0.083 C 
ATOM      9  C   UNL     1      18.063 -17.241   4.486  0.00  0.00    -0.019 C 
ATOM     10  N   UNL     1      18.605 -17.574   5.477  0.00  0.00    -0.239 NA
BRANCH  10  11
ATOM     11  C   UNL     1      17.893 -18.567   6.311  0.00  0.00    +0.112 C 
ATOM     12  C   UNL     1      18.312 -19.978   5.883  0.00  0.00    +0.033 C 
BRANCH  11  13
ATOM     13  C   UNL     1      18.278 -18.330   7.787  0.00  0.00    +0.027 C 
BRANCH  13  14
ATOM     14  C   UNL     1      17.861 -16.942   8.287  0.00  0.00    -0.001 C 
ATOM     15  C   UNL     1      18.236 -16.719   9.745  0.00  0.00    +0.004 C 
ENDBRANCH  13  14
ENDBRANCH  11  13
ENDBRANCH  10  11
ENDBRANCH   7   8
BRANCH   7  16
ATOM     16  N   UNL     1      15.662 -16.208   2.004  0.00  0.00    -0.308 NA
ATOM     17  H   UNL     1      16.259 -16.064   1.190  0.00  0.00    +0.120 HD
ATOM     18  H   UNL     1      15.033 -15.403   1.926  0.00  0.00    +0.120 HD
ENDBRANCH   7  16
ENDBRANCH   5   7
ENDBRANCH   3   5
BRANCH   1  19
ATOM     19  C   UNL     1      14.320 -11.175   2.190  0.00  0.00    +0.103 C 
BRANCH  19  20
ATOM     20  C   UNL     1      13.802  -9.754   1.904  0.00  0.00    +0.023 C 
BRANCH  20  21
ATOM     21  C   UNL     1      12.265  -9.679   1.933  0.00  0.00    +0.029 C 
BRANCH  21  23
ATOM     22  C   UNL     1      10.944  -7.597   2.506  0.00  0.00    -0.004 C 
ATOM     23  C   UNL     1      11.730  -8.290   1.660  0.00  0.00    -0.027 C 
BRANCH  22  25
ATOM     24  C   UNL     1       9.639  -5.584   3.079  0.00  0.00    -0.000 C 
ATOM     25  C   UNL     1      10.414  -6.273   2.222  0.00  0.00    -0.000 C 
BRANCH  24  27
ATOM     26  C   UNL     1       8.345  -3.564   3.660  0.00  0.00    -0.000 C 
ATOM     27  C   UNL     1       9.115  -4.255   2.800  0.00  0.00    -0.000 C 
BRANCH  26  29
ATOM     28  C   UNL     1       7.057  -1.546   4.241  0.00  0.00    -0.000 C 
ATOM     29  C   UNL     1       7.826  -2.236   3.379  0.00  0.00    -0.000 C 
BRANCH  28  31
ATOM     30  C   UNL     1       5.778   0.474   4.819  0.00  0.00    -0.027 C 
ATOM     31  C   UNL     1       6.543  -0.219   3.961  0.00  0.00    -0.004 C 
BRANCH  30  33
ATOM     32  C   UNL     1       5.701   2.877   5.546  0.00  0.00    +0.008 C 
ATOM     33  C   UNL     1       5.231   1.846   4.529  0.00  0.00    +0.024 C 
ENDBRANCH  30  33
ENDBRANCH  28  31
ENDBRANCH  26  29
ENDBRANCH  24  27
ENDBRANCH  22  25
ENDBRANCH  21  23
ENDBRANCH  20  21
ENDBRANCH  19  20
ENDBRANCH   1  19
TORSDOF 16
