REMARK  Name = 
REMARK  1 active torsions:
REMARK  status: ('A' for Active; 'I' for Inactive)
REMARK    1  A    between atoms: C_7  and  N_8
REMARK                            x       y       z     vdW  Elec       q    Type
REMARK                         _______ _______ _______ _____ _____    ______ ____
ROOT
ATOM      1  C   UNL     1       1.157  -0.092  -0.836  0.00  0.00    -0.077 C 
ATOM      2  C   UNL     1       2.123  -0.280  -1.504  0.00  0.00    -0.077 C 
ATOM      3  C   UNL     1       2.427   0.111  -0.129  0.00  0.00    +0.110 C 
ATOM      4  C   UNL     1       2.817  -1.018   0.812  0.00  0.00    +0.037 C 
ATOM      5  C   UNL     1       4.273  -1.457   0.649  0.00  0.00    +0.005 C 
ATOM      6  C   UNL     1       5.320  -0.340   0.598  0.00  0.00    +0.026 C 
ATOM      7  C   UNL     1       5.063   0.892   1.482  0.00  0.00    +0.096 C 
ATOM      8  C   UNL     1       2.906   1.472   0.237  0.00  0.00    +0.003 C 
ATOM      9  C   UNL     1       4.006   1.815   0.931  0.00  0.00    -0.007 C 
ENDROOT
BRANCH   7  10
ATOM     10  N   UNL     1       4.676   0.577   2.844  0.00  0.00    -0.312 N 
ATOM     11  C   UNL     1       5.464  -0.143   3.700  0.00  0.00    +0.326 C 
ATOM     12  O   UNL     1       6.569  -0.598   3.448  0.00  0.00    -0.280 OA
ATOM     13  H   UNL     1       3.786   0.914   3.187  0.00  0.00    +0.149 HD
ENDBRANCH   7  10
TORSDOF 1
