REMARK  Name = 
REMARK  4 active torsions:
REMARK  status: ('A' for Active; 'I' for Inactive)
REMARK    1  A    between atoms: C_3  and  C_13
REMARK    2  A    between atoms: C_11  and  C_12
REMARK    3  A    between atoms: C_13  and  N_14
REMARK    4  A    between atoms: N_14  and  C_15
REMARK                            x       y       z     vdW  Elec       q    Type
REMARK                         _______ _______ _______ _____ _____    ______ ____
ROOT
ATOM      1  C   UNL     1      -1.329   0.996  -0.320  0.00  0.00    +0.062 C 
ATOM      2  C   UNL     1      -1.237   2.083  -1.411  0.00  0.00    +0.022 C 
ATOM      3  C   UNL     1      -1.130   3.441  -0.691  0.00  0.00    +0.028 C 
ATOM      4  C   UNL     1      -1.451   3.107   0.731  0.00  0.00    -0.002 C 
ATOM      5  C   UNL     1      -1.173   1.823   0.937  0.00  0.00    +0.025 C 
ATOM      6  N   UNL     1      -0.638   1.261   2.063  0.00  0.00    -0.270 N 
ATOM      7  N   UNL     1      -0.006   0.054   2.089  0.00  0.00    -0.257 N 
ATOM      8  C   UNL     1      -0.601  -1.171   1.842  0.00  0.00    +0.199 C 
ATOM      9  N   UNL     1      -1.644  -1.640   1.300  0.00  0.00    -0.247 NA
ATOM     10  C   UNL     1      -2.642  -0.930   0.682  0.00  0.00    +0.112 C 
ATOM     11  C   UNL     1      -2.597   0.165  -0.142  0.00  0.00    -0.046 C 
ATOM     12  C   UNL     1      -3.873   0.597  -0.819  0.00  0.00    +0.041 C 
ATOM     13  H   UNL     1      -0.239   1.973   2.675  0.00  0.00    +0.170 HD
ATOM     14  H   UNL     1       1.009   0.071   1.923  0.00  0.00    +0.171 HD
ENDROOT
BRANCH   3  15
ATOM     15  C   UNL     1      -1.881   4.600  -1.351  0.00  0.00    +0.088 C 
BRANCH  15  16
ATOM     16  N   UNL     1      -1.870   5.803  -0.508  0.00  0.00    -0.318 NA
ATOM     17  C   UNL     1      -2.442   6.948  -1.198  0.00  0.00    +0.101 C 
ATOM     18  H   UNL     1      -0.915   6.014  -0.232  0.00  0.00    +0.122 HD
ENDBRANCH  15  16
ENDBRANCH   3  15
TORSDOF 2
