REMARK  Name = 
REMARK  1 active torsions:
REMARK  status: ('A' for Active; 'I' for Inactive)
REMARK    1  A    between atoms: C_5  and  O_6
REMARK                            x       y       z     vdW  Elec       q    Type
REMARK                         _______ _______ _______ _____ _____    ______ ____
ROOT
ATOM      1  C   UNL     1      -0.378   1.223   0.155  0.00  0.00    +0.097 C 
ATOM      2  C   UNL     1      -1.232   0.020  -0.177  0.00  0.00    +0.033 C 
ATOM      3  C   UNL     1      -0.314  -1.160   0.117  0.00  0.00    +0.145 C 
ATOM      4  N   UNL     1       1.066  -0.676  -0.112  0.00  0.00    -0.255 NA
ATOM      5  C   UNL     1       0.946   0.608  -0.070  0.00  0.00    +0.182 C 
ENDROOT
BRANCH   5   6
ATOM      6  O   UNL     1       2.006   1.391  -0.200  0.00  0.00    -0.496 OA
ATOM      7  H   UNL     1       2.779   0.813  -0.322  0.00  0.00    +0.293 HD
ENDBRANCH   5   6
TORSDOF 1
