REMARK  Name = 
REMARK  1 active torsions:
REMARK  status: ('A' for Active; 'I' for Inactive)
REMARK    1  A    between atoms: C_4  and  C_5
REMARK                            x       y       z     vdW  Elec       q    Type
REMARK                         _______ _______ _______ _____ _____    ______ ____
ROOT
ATOM      1  C   UNL     1       1.384   0.026  -0.647  0.00  0.00    +0.003 C 
ATOM      2  C   UNL     1       1.959   0.118  -1.860  0.00  0.00    +0.001 C 
ATOM      3  C   UNL     1       3.251   0.072  -1.252  0.00  0.00    +0.003 C 
ATOM      4  C   UNL     1       2.679  -0.021  -0.037  0.00  0.00    -0.050 C 
ATOM      5  C   UNL     1       3.171  -0.129   1.381  0.00  0.00    +0.044 C 
ENDROOT
TORSDOF 0
