REMARK  Name = 
REMARK  0 active torsions:
REMARK  status: ('A' for Active; 'I' for Inactive)
REMARK                            x       y       z     vdW  Elec       q    Type
REMARK                         _______ _______ _______ _____ _____    ______ ____
ROOT
ATOM      1  C   UNL     1       0.616   1.134  -0.061  0.00  0.00    +0.114 C 
ATOM      2  C   UNL     1       1.603  -0.044   0.011  0.00  0.00    +0.113 C 
ATOM      3  N   UNL     1       0.465  -0.932  -0.244  0.00  0.00    -0.315 N 
ATOM      4  C   UNL     1      -0.462   0.040  -0.025  0.00  0.00    +0.215 C 
ATOM      5  O   UNL     1      -1.645  -0.041   0.193  0.00  0.00    -0.276 OA
ATOM      6  H   UNL     1       0.273  -1.851   0.131  0.00  0.00    +0.149 HD
ENDROOT
TORSDOF 0
