REMARK  Name = 
REMARK  8 active torsions:
REMARK  status: ('A' for Active; 'I' for Inactive)
REMARK    1  A    between atoms: C_10  and  C_11
REMARK    2  A    between atoms: C_11  and  C_12
REMARK    3  A    between atoms: C_12  and  C_13
REMARK    4  A    between atoms: C_17  and  N_19
REMARK    5  A    between atoms: C_27  and  C_28
REMARK    6  A    between atoms: C_28  and  N_29
REMARK    7  A    between atoms: N_29  and  N_30
REMARK    8  A    between atoms: N_30  and  C_31
REMARK                            x       y       z     vdW  Elec       q    Type
REMARK                         _______ _______ _______ _____ _____    ______ ____
ROOT
ATOM      1  C   UNL     1       5.112   1.980  -0.075  0.00  0.00    +0.095 C 
ATOM      2  N   UNL     1       6.006   1.390   0.911  0.00  0.00    -0.343 N 
ATOM      3  C   UNL     1       6.272   1.971   2.117  0.00  0.00    +0.070 C 
ATOM      4  C   UNL     1       5.954   3.240   2.376  0.00  0.00    +0.040 C 
ATOM      5  C   UNL     1       5.457   4.112   1.307  0.00  0.00    +0.046 C 
ATOM      6  C   UNL     1       4.912   3.479   0.226  0.00  0.00    +0.021 C 
ATOM      7  H   UNL     1       6.469   0.515   0.687  0.00  0.00    +0.146 HD
ENDROOT
BRANCH   5   8
ATOM      8  N   UNL     1       5.612   5.537   1.432  0.00  0.00    -0.314 N 
ATOM      9  C   UNL     1       4.888   6.535   0.752  0.00  0.00    +0.092 A 
ATOM     10  C   UNL     1       5.220   7.802   1.214  0.00  0.00    +0.028 A 
ATOM     11  C   UNL     1       6.232   7.597   2.134  0.00  0.00    +0.007 A 
ATOM     12  C   UNL     1       6.515   6.254   2.205  0.00  0.00    +0.079 A 
ATOM     13  C   UNL     1       7.673   6.086   3.029  0.00  0.00    +0.080 C 
ATOM     14  N   UNL     1       8.403   5.047   3.222  0.00  0.00    -0.298 NA
ATOM     15  C   UNL     1       7.996   7.427   3.593  0.00  0.00    +0.034 C 
ATOM     16  C   UNL     1       7.127   8.292   2.995  0.00  0.00    -0.021 C 
ATOM     17  H   UNL     1       8.049   4.263   2.659  0.00  0.00    +0.187 HD
BRANCH  16  18
ATOM     18  C   UNL     1       7.081   9.781   3.145  0.00  0.00    +0.134 C 
BRANCH  18  19
ATOM     19  N   UNL     1       5.801  10.234   3.715  0.00  0.00    -0.253 NA
ATOM     20  H   UNL     1       5.705   9.788   4.633  0.00  0.00    +0.141 HD
BRANCH  19  21
ATOM     21  N   UNL     1       5.810  11.684   3.858  0.00  0.00    -0.259 NA
ATOM     22  C   UNL     1       4.512  12.092   4.401  0.00  0.00    +0.120 C 
ATOM     23  H   UNL     1       5.919  12.137   2.945  0.00  0.00    +0.140 HD
ENDBRANCH  19  21
ENDBRANCH  18  19
ENDBRANCH  16  18
ENDBRANCH   5   8
BRANCH   1  24
ATOM     24  C   UNL     1       3.949   1.004  -0.461  0.00  0.00    +0.031 C 
BRANCH  24  25
ATOM     25  C   UNL     1       3.172   0.062   0.515  0.00  0.00    +0.033 C 
BRANCH  25  35
ATOM     26  C   UNL     1       1.083   1.620   1.026  0.00  0.00    +0.035 C 
ATOM     27  C   UNL     1      -0.388   1.922   1.570  0.00  0.00    +0.031 C 
ATOM     28  C   UNL     1      -0.660   2.053   3.039  0.00  0.00    -0.026 C 
ATOM     29  C   UNL     1      -0.503   3.169   3.783  0.00  0.00    -0.004 C 
ATOM     30  C   UNL     1      -0.025   2.960   5.164  0.00  0.00    -0.000 C 
ATOM     31  C   UNL     1       1.317   2.756   5.201  0.00  0.00    -0.000 C 
ATOM     32  C   UNL     1       1.732   1.373   4.879  0.00  0.00    -0.000 C 
ATOM     33  C   UNL     1       2.426   1.240   3.747  0.00  0.00    -0.000 C 
ATOM     34  C   UNL     1       2.329   0.176   2.789  0.00  0.00    -0.001 C 
ATOM     35  C   UNL     1       2.114   0.567   1.511  0.00  0.00    -0.069 C 
ENDBRANCH  25  35
ENDBRANCH  24  25
ENDBRANCH   1  24
TORSDOF 7
