REMARK  Name = 
REMARK  7 active torsions:
REMARK  status: ('A' for Active; 'I' for Inactive)
REMARK    1  A    between atoms: C_4  and  C_5
REMARK    2  A    between atoms: N_6  and  C_7
REMARK    3  A    between atoms: C_8  and  C_9
REMARK    4  A    between atoms: C_8  and  C_11
REMARK    5  A    between atoms: C_9  and  N_10
REMARK    6  A    between atoms: C_12  and  C_13
REMARK    7  A    between atoms: C_18  and  C_19
REMARK                            x       y       z     vdW  Elec       q    Type
REMARK                         _______ _______ _______ _____ _____    ______ ____
ROOT
ATOM      1  C   UNL     1      -2.232   0.580   0.822  0.00  0.00    +0.077 C 
ATOM      2  C   UNL     1      -3.298  -0.202   1.143  0.00  0.00    -0.020 C 
ENDROOT
BRANCH   1   8
ATOM      3  C   UNL     1      -0.399  -0.967  -0.056  0.00  0.00    +0.268 C 
ATOM      4  O   UNL     1       1.029  -0.798  -0.121  0.00  0.00    -0.360 OA
ATOM      5  C   UNL     1       1.319   0.577   0.189  0.00  0.00    +0.184 C 
ATOM      6  C   UNL     1       0.022   1.341  -0.039  0.00  0.00    +0.098 C 
ATOM      7  C   UNL     1      -0.084   1.821  -1.485  0.00  0.00    +0.030 C 
ATOM      8  N   UNL     1      -1.005   0.328   0.227  0.00  0.00    -0.308 N 
ENDBRANCH   1   8
BRANCH   2   9
ATOM      9  C   UNL     1      -4.450   0.381   1.872  0.00  0.00    +0.006 C 
ATOM     10  C   UNL     1      -4.273   0.960   3.068  0.00  0.00    +0.001 C 
BRANCH  10  11
ATOM     11  C   UNL     1      -5.240   1.529   3.994  0.00  0.00    +0.008 C 
ATOM     12  C   UNL     1      -4.934   2.074   5.191  0.00  0.00    -0.022 C 
ATOM     13  C   UNL     1      -5.940   2.633   6.099  0.00  0.00    +0.008 C 
ATOM     14  C   UNL     1      -5.295   3.099   7.183  0.00  0.00    +0.001 C 
ATOM     15  C   UNL     1      -3.881   2.854   7.040  0.00  0.00    +0.004 C 
ATOM     16  C   UNL     1      -3.640   2.235   5.864  0.00  0.00    -0.043 C 
ATOM     17  C   UNL     1      -2.287   1.803   5.427  0.00  0.00    +0.044 C 
ENDBRANCH  10  11
ENDBRANCH   2   9
BRANCH   2  18
ATOM     18  C   UNL     1      -3.472  -1.654   0.737  0.00  0.00    +0.114 C 
BRANCH  18  19
ATOM     19  N   UNL     1      -3.032  -2.644   1.721  0.00  0.00    -0.326 NA
ATOM     20  H   UNL     1      -2.409  -2.213   2.402  0.00  0.00    +0.119 HD
ATOM     21  H   UNL     1      -3.828  -3.012   2.239  0.00  0.00    +0.119 HD
ENDBRANCH  18  19
ENDBRANCH   2  18
TORSDOF 5
