REMARK  Name = 
REMARK  5 active torsions:
REMARK  status: ('A' for Active; 'I' for Inactive)
REMARK    1  A    between atoms: C_8  and  C_9
REMARK    2  A    between atoms: C_10  and  C_11
REMARK    3  A    between atoms: C_12  and  C_13
REMARK    4  A    between atoms: C_14  and  C_15
REMARK    5  A    between atoms: C_17  and  C_18
REMARK                            x       y       z     vdW  Elec       q    Type
REMARK                         _______ _______ _______ _____ _____    ______ ____
ROOT
ATOM      1  C   UNL     1      -1.232  -2.908   0.455  0.00  0.00    +0.005 C 
ATOM      2  C   UNL     1      -0.716  -3.859   1.251  0.00  0.00    +0.000 C 
ENDROOT
BRANCH   1  10
ATOM      3  C   UNL     1      -0.425  -1.553  -1.478  0.00  0.00    +0.036 C 
ATOM      4  C   UNL     1      -1.363  -0.488  -2.053  0.00  0.00    +0.005 C 
ATOM      5  C   UNL     1      -1.342   0.890  -1.389  0.00  0.00    +0.002 C 
ATOM      6  C   UNL     1       0.017   1.591  -1.337  0.00  0.00    +0.019 C 
ATOM      7  C   UNL     1       1.123   0.946  -0.499  0.00  0.00    +0.101 C 
ATOM      8  N   UNL     1       0.651   0.351   0.734  0.00  0.00    -0.349 N 
ATOM      9  C   UNL     1      -0.015  -0.840   0.911  0.00  0.00    +0.071 C 
ATOM     10  C   UNL     1      -0.506  -1.722   0.020  0.00  0.00    -0.034 C 
ATOM     11  H   UNL     1       0.677   0.956   1.552  0.00  0.00    +0.146 HD
ENDBRANCH   1  10
BRANCH   2  12
ATOM     12  C   UNL     1      -1.453  -5.045   1.632  0.00  0.00    -0.000 C 
ATOM     13  C   UNL     1      -0.945  -6.009   2.415  0.00  0.00    -0.000 C 
BRANCH  13  14
ATOM     14  C   UNL     1      -1.703  -7.184   2.800  0.00  0.00    -0.003 C 
ATOM     15  C   UNL     1      -1.214  -8.139   3.606  0.00  0.00    -0.014 C 
BRANCH  15  16
ATOM     16  C   UNL     1      -1.898  -9.353   4.060  0.00  0.00    +0.072 C 
ATOM     17  C   UNL     1      -3.095  -9.297   4.857  0.00  0.00    -0.030 C 
ATOM     18  C   UNL     1      -4.391  -9.179   5.006  0.00  0.00    +0.047 C 
ATOM     19  C   UNL     1      -1.917  -9.528   5.489  0.00  0.00    -0.039 C 
ATOM     20  C   UNL     1      -1.273  -9.743   6.612  0.00  0.00    +0.013 C 
BRANCH  18  21
ATOM     21  C   UNL     1      -5.274  -9.021   3.842  0.00  0.00    +0.251 C 
ATOM     22  O   UNL     1      -6.487  -8.912   3.976  0.00  0.00    -0.296 OA
ENDBRANCH  18  21
ENDBRANCH  15  16
ENDBRANCH  13  14
ENDBRANCH   2  12
TORSDOF 5
