REMARK  Name = 
REMARK  11 active torsions:
REMARK  status: ('A' for Active; 'I' for Inactive)
REMARK    1  A    between atoms: C_1  and  N_2
REMARK    2  A    between atoms: N_2  and  C_3
REMARK    3  A    between atoms: C_3  and  C_4
REMARK    4  A    between atoms: C_3  and  C_8
REMARK    5  A    between atoms: C_4  and  C_5
REMARK    6  A    between atoms: C_5  and  C_6
REMARK    7  A    between atoms: C_5  and  C_7
REMARK    8  A    between atoms: C_9  and  C_10
REMARK    9  A    between atoms: C_11  and  C_12
REMARK   10  A    between atoms: C_12  and  C_13
REMARK   11  A    between atoms: C_14  and  C_15
REMARK                            x       y       z     vdW  Elec       q    Type
REMARK                         _______ _______ _______ _____ _____    ______ ____
ROOT
ATOM      1  C   UNL     1       4.601  -1.271  -1.126  0.00  0.00    -0.008 C 
ATOM      2  C   UNL     1       5.387  -2.348  -0.966  0.00  0.00    -0.003 C 
ENDROOT
BRANCH   2   3
ATOM      3  C   UNL     1       6.828  -2.274  -1.070  0.00  0.00    -0.004 C 
ATOM      4  C   UNL     1       7.630  -3.341  -0.930  0.00  0.00    -0.023 C 
BRANCH   4   5
ATOM      5  C   UNL     1       9.129  -3.282  -0.999  0.00  0.00    +0.054 C 
BRANCH   5   6
ATOM      6  C   UNL     1       9.654  -4.146  -2.107  0.00  0.00    -0.020 C 
ATOM      7  C   UNL     1      10.479  -5.188  -1.917  0.00  0.00    +0.034 C 
BRANCH   7   8
ATOM      8  C   UNL     1      10.939  -6.016  -2.997  0.00  0.00    +0.134 C 
ATOM      9  C   UNL     1      12.062  -6.650  -3.012  0.00  0.00    +0.018 C 
ATOM     10  N   UNL     1      11.209  -7.355  -2.636  0.00  0.00    -0.193 NA
ENDBRANCH   7   8
ENDBRANCH   5   6
ENDBRANCH   4   5
ENDBRANCH   2   3
BRANCH   1  11
ATOM     11  C   UNL     1       3.107  -1.241  -0.910  0.00  0.00    +0.077 C 
BRANCH  11  13
ATOM     12  C   UNL     1       1.546  -0.073   0.617  0.00  0.00    +0.101 C 
ATOM     13  N   UNL     1       2.921  -0.261   0.183  0.00  0.00    -0.313 NA
ATOM     14  H   UNL     1       3.472  -0.574   0.983  0.00  0.00    +0.122 HD
ENDBRANCH  11  13
BRANCH  11  15
ATOM     15  C   UNL     1       2.348  -0.818  -2.188  0.00  0.00    +0.026 C 
BRANCH  15  16
ATOM     16  C   UNL     1       2.453  -1.729  -3.434  0.00  0.00    -0.015 C 
ATOM     17  C   UNL     1       1.994  -3.167  -3.188  0.00  0.00    +0.007 C 
ATOM     18  C   UNL     1       1.597  -1.116  -4.553  0.00  0.00    +0.007 C 
ENDBRANCH  15  16
ENDBRANCH  11  15
ENDBRANCH   1  11
TORSDOF 8
