REMARK  Name = 
REMARK  2 active torsions:
REMARK  status: ('A' for Active; 'I' for Inactive)
REMARK    1  A    between atoms: C_2  and  C_3
REMARK    2  A    between atoms: C_8  and  C_9
REMARK                            x       y       z     vdW  Elec       q    Type
REMARK                         _______ _______ _______ _____ _____    ______ ____
ROOT
ATOM      1  C   UNL     1       5.790   1.842   1.210  0.00  0.00    +0.013 C 
ATOM      2  C   UNL     1       7.027   1.895   0.688  0.00  0.00    -0.028 C 
ATOM      3  C   UNL     1       7.682   1.262  -0.523  0.00  0.00    +0.076 C 
ATOM      4  C   UNL     1       7.487   0.033  -1.402  0.00  0.00    -0.043 C 
ATOM      5  C   UNL     1       6.658  -0.600  -2.223  0.00  0.00    +0.013 C 
ATOM      6  C   UNL     1       8.889  -0.325  -1.118  0.00  0.00    +0.005 C 
ATOM      7  C   UNL     1       8.650   0.147   0.131  0.00  0.00    -0.044 C 
ATOM      8  C   UNL     1       8.223  -0.571   1.435  0.00  0.00    +0.115 C 
ATOM      9  N   UNL     1       8.387   0.272   2.632  0.00  0.00    -0.291 NA
ATOM     10  C   UNL     1       8.980   1.574   2.327  0.00  0.00    +0.173 C 
ATOM     11  N   UNL     1       9.460   2.313   3.483  0.00  0.00    -0.316 N 
ATOM     12  C   UNL     1       9.838   3.599   3.200  0.00  0.00    +0.182 C 
ATOM     13  N   UNL     1       9.258   4.402   2.366  0.00  0.00    -0.248 NA
ATOM     14  C   UNL     1       8.208   3.849   1.671  0.00  0.00    +0.119 C 
ATOM     15  C   UNL     1       8.043   2.520   1.553  0.00  0.00    +0.009 C 
ATOM     16  H   UNL     1       9.012  -0.207   3.263  0.00  0.00    +0.124 HD
ATOM     17  H   UNL     1       8.676   2.326   4.132  0.00  0.00    +0.149 HD
ENDROOT
BRANCH   1  23
ATOM     18  C   UNL     1       4.147  -0.404   2.756  0.00  0.00    +0.008 C 
ATOM     19  C   UNL     1       3.797   0.179   1.590  0.00  0.00    -0.018 C 
ATOM     20  C   UNL     1       2.589  -0.089   0.825  0.00  0.00    +0.008 C 
ATOM     21  C   UNL     1       2.676   0.636  -0.300  0.00  0.00    +0.001 C 
ATOM     22  C   UNL     1       3.907   1.408  -0.286  0.00  0.00    +0.008 C 
ATOM     23  C   UNL     1       4.619   1.142   0.814  0.00  0.00    -0.018 C 
BRANCH  18  25
ATOM     24  C   UNL     1       3.865  -2.051   4.546  0.00  0.00    +0.008 C 
ATOM     25  C   UNL     1       3.410  -1.448   3.441  0.00  0.00    -0.007 C 
ENDBRANCH  18  25
ENDBRANCH   1  23
TORSDOF 2
