REMARK  Name = 
REMARK  16 active torsions:
REMARK  status: ('A' for Active; 'I' for Inactive)
REMARK    1  A    between atoms: C_1  and  C_2
REMARK    2  A    between atoms: C_2  and  N_3
REMARK    3  A    between atoms: C_4  and  C_6
REMARK    4  A    between atoms: C_7  and  N_8
REMARK    5  A    between atoms: N_8  and  C_9
REMARK    6  A    between atoms: C_12  and  C_13
REMARK    7  A    between atoms: C_12  and  C_19
REMARK    8  A    between atoms: C_14  and  C_15
REMARK    9  A    between atoms: C_16  and  C_17
REMARK   10  A    between atoms: C_19  and  C_20
REMARK   11  A    between atoms: C_20  and  C_21
REMARK   12  A    between atoms: C_21  and  C_23
REMARK   13  A    between atoms: C_23  and  C_24
REMARK   14  A    between atoms: C_24  and  C_25
REMARK   15  A    between atoms: C_26  and  C_27
REMARK   16  A    between atoms: C_28  and  C_29
REMARK                            x       y       z     vdW  Elec       q    Type
REMARK                         _______ _______ _______ _____ _____    ______ ____
ROOT
ATOM      1  C   UNL     1       4.781   1.177   2.850  0.00  0.00    +0.097 C 
ATOM      2  C   UNL     1       3.817   1.041   4.070  0.00  0.00    +0.092 C 
ATOM      3  C   UNL     1       4.647   2.706   3.023  0.00  0.00    +0.027 C 
ATOM      4  C   UNL     1       4.286   2.476   4.541  0.00  0.00    +0.009 C 
ENDROOT
BRANCH   1   6
ATOM      5  N   UNL     1       3.617  -0.546   1.519  0.00  0.00    -0.315 N 
ATOM      6  C   UNL     1       4.380   0.603   1.476  0.00  0.00    +0.218 C 
ATOM      7  O   UNL     1       4.728   1.112   0.407  0.00  0.00    -0.275 OA
ATOM      8  H   UNL     1       3.341  -0.925   2.418  0.00  0.00    +0.149 HD
BRANCH   5  10
ATOM      9  C   UNL     1       1.823  -0.642  -0.152  0.00  0.00    +0.024 C 
ATOM     10  C   UNL     1       3.154  -1.203   0.314  0.00  0.00    +0.101 C 
ENDBRANCH   5  10
ENDBRANCH   1   6
BRANCH   2  11
ATOM     11  N   UNL     1       4.208  -0.057   4.910  0.00  0.00    -0.346 N 
ATOM     12  H   UNL     1       5.150  -0.431   4.798  0.00  0.00    +0.146 HD
BRANCH  11  13
ATOM     13  C   UNL     1       3.385  -0.793   5.713  0.00  0.00    +0.060 C 
ATOM     14  C   UNL     1       3.762  -1.802   6.503  0.00  0.00    +0.024 C 
ENDBRANCH  11  13
ENDBRANCH   2  11
BRANCH   4  15
ATOM     15  C   UNL     1       3.208   3.448   4.967  0.00  0.00    -0.018 C 
ATOM     16  C   UNL     1       2.318   3.219   5.939  0.00  0.00    -0.004 C 
BRANCH  16  17
ATOM     17  C   UNL     1       1.437   4.285   6.388  0.00  0.00    +0.003 C 
ATOM     18  C   UNL     1       0.505   4.136   7.337  0.00  0.00    +0.042 C 
BRANCH  18  19
ATOM     19  C   UNL     1      -0.308   5.294   7.763  0.00  0.00    +0.251 C 
ATOM     20  O   UNL     1      -1.180   5.182   8.616  0.00  0.00    -0.296 OA
ENDBRANCH  18  19
ENDBRANCH  16  17
ENDBRANCH   4  15
BRANCH   4  21
ATOM     21  C   UNL     1       5.506   2.552   5.484  0.00  0.00    +0.020 C 
BRANCH  21  22
ATOM     22  C   UNL     1       6.178   3.922   5.431  0.00  0.00    +0.075 C 
BRANCH  22  23
ATOM     23  C   UNL     1       7.380   4.016   6.346  0.00  0.00    +0.134 C 
ATOM     24  O   UNL     1       7.459   3.384   7.398  0.00  0.00    -0.297 OA
BRANCH  23  25
ATOM     25  C   UNL     1       8.478   4.957   5.905  0.00  0.00    +0.078 C 
BRANCH  25  26
ATOM     26  C   UNL     1       7.926   6.370   5.774  0.00  0.00    +0.034 C 
BRANCH  26  27
ATOM     27  C   UNL     1       8.974   7.332   5.306  0.00  0.00    -0.026 C 
ATOM     28  C   UNL     1       8.849   8.023   4.167  0.00  0.00    -0.005 C 
BRANCH  28  29
ATOM     29  C   UNL     1       9.842   8.955   3.709  0.00  0.00    -0.005 C 
ATOM     30  C   UNL     1       9.710   9.655   2.572  0.00  0.00    -0.030 C 
ATOM     31  C   UNL     1      10.729  10.621   2.078  0.00  0.00    +0.035 C 
ENDBRANCH  28  29
ENDBRANCH  26  27
ENDBRANCH  25  26
ENDBRANCH  23  25
ENDBRANCH  22  23
ENDBRANCH  21  22
ENDBRANCH   4  21
TORSDOF 14
