REMARK  Name = 
REMARK  10 active torsions:
REMARK  status: ('A' for Active; 'I' for Inactive)
REMARK    1  A    between atoms: C_2  and  C_3
REMARK    2  A    between atoms: C_3  and  C_4
REMARK    3  A    between atoms: C_4  and  N_5
REMARK    4  A    between atoms: N_5  and  C_6
REMARK    5  A    between atoms: C_6  and  C_7
REMARK    6  A    between atoms: C_6  and  C_8
REMARK    7  A    between atoms: C_8  and  C_10
REMARK    8  A    between atoms: C_10  and  C_11
REMARK    9  A    between atoms: C_15  and  C_16
REMARK   10  A    between atoms: C_16  and  C_17
REMARK                            x       y       z     vdW  Elec       q    Type
REMARK                         _______ _______ _______ _____ _____    ______ ____
ROOT
ATOM      1  C   UNL     1       7.511  -2.731  -1.968  0.00  0.00    -0.049 C 
ATOM      2  C   UNL     1       6.945  -3.619  -2.816  0.00  0.00    +0.010 C 
ENDROOT
BRANCH   1   3
ATOM      3  C   UNL     1       9.043  -2.498  -1.962  0.00  0.00    +0.028 C 
ATOM      4  C   UNL     1       9.349  -1.472  -3.085  0.00  0.00    +0.022 C 
ATOM      5  C   UNL     1       9.614  -1.909  -0.667  0.00  0.00    +0.001 C 
ATOM      6  C   UNL     1      10.849  -2.368  -0.444  0.00  0.00    +0.064 C 
ATOM      7  N   UNL     1      11.236  -3.264  -1.403  0.00  0.00    -0.346 N 
ATOM      8  C   UNL     1      10.040  -3.749  -2.133  0.00  0.00    +0.083 C 
ATOM      9  H   UNL     1      11.943  -3.936  -1.123  0.00  0.00    +0.146 HD
BRANCH   8  10
ATOM     10  C   UNL     1       9.603  -5.088  -1.493  0.00  0.00    +0.020 C 
ATOM     11  C   UNL     1      10.704  -6.152  -1.529  0.00  0.00    +0.006 C 
ENDBRANCH   8  10
ENDBRANCH   1   3
BRANCH   1  12
ATOM     12  C   UNL     1       6.638  -1.832  -1.073  0.00  0.00    +0.077 C 
ATOM     13  C   UNL     1       6.479  -2.497   0.302  0.00  0.00    +0.029 C 
BRANCH  12  14
ATOM     14  N   UNL     1       5.308  -1.527  -1.663  0.00  0.00    -0.310 NA
ATOM     15  H   UNL     1       5.461  -1.122  -2.588  0.00  0.00    +0.122 HD
BRANCH  14  16
ATOM     16  C   UNL     1       4.535  -0.576  -0.846  0.00  0.00    +0.085 C 
BRANCH  16  17
ATOM     17  C   UNL     1       3.157  -0.275  -1.456  0.00  0.00    +0.041 C 
BRANCH  17  19
ATOM     18  C   UNL     1       1.924   1.871  -0.969  0.00  0.00    +0.004 C 
ATOM     19  C   UNL     1       2.364   0.667  -0.583  0.00  0.00    -0.033 C 
ENDBRANCH  17  19
ENDBRANCH  16  17
ENDBRANCH  14  16
ENDBRANCH  12  14
ENDBRANCH   1  12
TORSDOF 7
