REMARK  Name = 
REMARK  5 active torsions:
REMARK  status: ('A' for Active; 'I' for Inactive)
REMARK    1  A    between atoms: C_1  and  C_2
REMARK    2  A    between atoms: N_5  and  C_8
REMARK    3  A    between atoms: C_11  and  C_12
REMARK    4  A    between atoms: C_14  and  C_15
REMARK    5  A    between atoms: C_15  and  C_16
REMARK                            x       y       z     vdW  Elec       q    Type
REMARK                         _______ _______ _______ _____ _____    ______ ____
ROOT
ATOM      1  C   UNL     1       4.812   0.267  -3.316  0.00  0.00    +0.083 C 
ATOM      2  C   UNL     1       5.281   1.371  -3.917  0.00  0.00    -0.004 C 
ATOM      3  C   UNL     1       5.239   2.786  -3.676  0.00  0.00    +0.013 C 
ATOM      4  C   UNL     1       6.008   3.046  -4.754  0.00  0.00    -0.042 C 
ATOM      5  C   UNL     1       6.548   4.314  -5.359  0.00  0.00    +0.044 C 
ATOM      6  C   UNL     1       6.069   1.646  -5.084  0.00  0.00    -0.018 C 
ATOM      7  C   UNL     1       6.645   0.953  -6.073  0.00  0.00    -0.018 C 
ENDROOT
BRANCH   1  12
ATOM      8  C   UNL     1       0.731  -0.149   0.175  0.00  0.00    +0.012 C 
ATOM      9  C   UNL     1       2.260  -0.118   0.191  0.00  0.00    +0.011 C 
ATOM     10  C   UNL     1       2.774   1.270  -0.202  0.00  0.00    +0.026 C 
ATOM     11  C   UNL     1       3.617   1.413  -1.464  0.00  0.00    +0.110 C 
ATOM     12  N   UNL     1       4.035   0.182  -2.154  0.00  0.00    -0.312 N 
ATOM     13  C   UNL     1       3.611  -1.046  -1.675  0.00  0.00    +0.071 C 
ATOM     14  C   UNL     1       2.814  -1.240  -0.627  0.00  0.00    -0.008 C 
ENDBRANCH   1  12
BRANCH   7  15
ATOM     15  C   UNL     1       6.564  -0.528  -6.293  0.00  0.00    +0.024 C 
ATOM     16  C   UNL     1       7.708  -1.258  -5.609  0.00  0.00    +0.008 C 
ENDBRANCH   7  15
TORSDOF 2
