REMARK  Name = 
REMARK  6 active torsions:
REMARK  status: ('A' for Active; 'I' for Inactive)
REMARK    1  A    between atoms: C_4  and  C_5
REMARK    2  A    between atoms: C_5  and  C_6
REMARK    3  A    between atoms: C_6  and  C_7
REMARK    4  A    between atoms: C_7  and  C_9
REMARK    5  A    between atoms: C_10  and  C_11
REMARK    6  A    between atoms: C_12  and  C_13
REMARK                            x       y       z     vdW  Elec       q    Type
REMARK                         _______ _______ _______ _____ _____    ______ ____
ROOT
ATOM      1  C   UNL     1       4.101  -0.184   2.413  0.00  0.00    +0.156 C 
ATOM      2  O   UNL     1       4.050  -1.260   3.006  0.00  0.00    -0.293 OA
ENDROOT
BRANCH   1   3
ATOM      3  C   UNL     1       5.032   0.896   2.847  0.00  0.00    +0.046 C 
ATOM      4  C   UNL     1       5.780   0.733   3.946  0.00  0.00    +0.003 C 
BRANCH   4   5
ATOM      5  C   UNL     1       6.709   1.731   4.423  0.00  0.00    -0.004 C 
ATOM      6  C   UNL     1       7.461   1.548   5.518  0.00  0.00    -0.030 C 
ATOM      7  C   UNL     1       8.441   2.551   6.033  0.00  0.00    +0.035 C 
ENDBRANCH   4   5
ENDBRANCH   1   3
BRANCH   1   8
ATOM      8  C   UNL     1       3.253   0.103   1.190  0.00  0.00    +0.079 C 
BRANCH   8   9
ATOM      9  C   UNL     1       1.879  -0.567   1.256  0.00  0.00    +0.016 C 
BRANCH   9  13
ATOM     10  C   UNL     1      -0.463  -0.322   2.377  0.00  0.00    +0.034 C 
ATOM     11  C   UNL     1      -0.604   1.182   2.437  0.00  0.00    -0.030 C 
ATOM     12  C   UNL     1       0.722   1.396   2.499  0.00  0.00    -0.027 C 
ATOM     13  C   UNL     1       1.068  -0.083   2.461  0.00  0.00    +0.016 C 
ENDBRANCH   9  13
ENDBRANCH   8   9
ENDBRANCH   1   8
TORSDOF 5
