REMARK  Name = 
REMARK  2 active torsions:
REMARK  status: ('A' for Active; 'I' for Inactive)
REMARK    1  A    between atoms: C_1  and  C_2
REMARK    2  A    between atoms: C_3  and  C_4
REMARK                            x       y       z     vdW  Elec       q    Type
REMARK                         _______ _______ _______ _____ _____    ______ ____
ROOT
ATOM      1  C   UNL     1       1.060   0.062   0.074  0.00  0.00    +0.035 C 
ATOM      2  C   UNL     1       2.555   0.090   0.048  0.00  0.00    -0.027 C 
ATOM      3  C   UNL     1       3.236   0.947  -0.725  0.00  0.00    +0.038 C 
ENDROOT
BRANCH   3   4
ATOM      4  C   UNL     1       4.712   0.965  -0.741  0.00  0.00    +0.250 C 
ATOM      5  O   UNL     1       5.329   1.750  -1.448  0.00  0.00    -0.296 OA
ENDBRANCH   3   4
TORSDOF 1
