REMARK  Name = 
REMARK  5 active torsions:
REMARK  status: ('A' for Active; 'I' for Inactive)
REMARK    1  A    between atoms: C_4  and  N_5
REMARK    2  A    between atoms: C_6  and  N_7
REMARK    3  A    between atoms: C_9  and  N_10
REMARK    4  A    between atoms: C_11  and  C_12
REMARK    5  A    between atoms: C_12  and  N_13
REMARK                            x       y       z     vdW  Elec       q    Type
REMARK                         _______ _______ _______ _____ _____    ______ ____
ROOT
ATOM      1  C   UNL     1       0.038  -0.302  -0.292  0.00  0.00    -0.032 C 
ATOM      2  C   UNL     1       1.152  -0.916   0.073  0.00  0.00    +0.004 C 
ATOM      3  C   UNL     1       2.068   0.165   0.292  0.00  0.00    +0.021 C 
ATOM      4  C   UNL     1       1.467   1.365   0.071  0.00  0.00    +0.030 C 
ATOM      5  C   UNL     1      -0.033   1.241  -0.233  0.00  0.00    +0.101 C 
ATOM      6  C   UNL     1      -1.364   0.866   0.447  0.00  0.00    -0.019 C 
ATOM      7  C   UNL     1      -2.272   1.373   1.298  0.00  0.00    +0.067 C 
ATOM      8  C   UNL     1      -1.437  -0.516  -0.326  0.00  0.00    +0.060 C 
ENDROOT
BRANCH   4   9
ATOM      9  N   UNL     1       2.191   2.406  -0.541  0.00  0.00    -0.359 N 
ATOM     10  H   UNL     1       3.140   2.094  -0.733  0.00  0.00    +0.142 HD
ATOM     11  H   UNL     1       1.770   2.531  -1.463  0.00  0.00    +0.142 HD
ENDBRANCH   4   9
BRANCH   5  12
ATOM     12  N   UNL     1      -0.367   2.077  -1.386  0.00  0.00    -0.313 NA
ATOM     13  H   UNL     1       0.010   3.011  -1.205  0.00  0.00    +0.120 HD
ATOM     14  H   UNL     1      -1.366   2.285  -1.396  0.00  0.00    +0.120 HD
ENDBRANCH   5  12
BRANCH   7  15
ATOM     15  N   UNL     1      -2.204   2.582   1.911  0.00  0.00    -0.364 N 
ATOM     16  H   UNL     1      -1.544   3.247   1.518  0.00  0.00    +0.142 HD
ATOM     17  H   UNL     1      -3.102   2.989   2.175  0.00  0.00    +0.142 HD
ENDBRANCH   7  15
BRANCH   8  18
ATOM     18  C   UNL     1      -1.929  -0.587  -1.788  0.00  0.00    +0.090 C 
BRANCH  18  19
ATOM     19  N   UNL     1      -1.780  -1.957  -2.313  0.00  0.00    -0.329 NA
ATOM     20  H   UNL     1      -0.813  -2.251  -2.166  0.00  0.00    +0.118 HD
ATOM     21  H   UNL     1      -1.894  -1.929  -3.325  0.00  0.00    +0.118 HD
ENDBRANCH  18  19
ENDBRANCH   8  18
TORSDOF 5
