REMARK  Name = 
REMARK  2 active torsions:
REMARK  status: ('A' for Active; 'I' for Inactive)
REMARK    1  A    between atoms: C_1  and  O_2
REMARK    2  A    between atoms: O_2  and  C_3
REMARK                            x       y       z     vdW  Elec       q    Type
REMARK                         _______ _______ _______ _____ _____    ______ ____
ROOT
ATOM      1  C   UNL     1       6.470  -3.427   1.485  0.00  0.00    +0.101 C 
ATOM      2  C   UNL     1       6.447  -2.199   0.928  0.00  0.00    +0.044 C 
ATOM      3  C   UNL     1       5.143  -2.070   0.213  0.00  0.00    -0.047 C 
ATOM      4  C   UNL     1       5.086  -2.871  -0.882  0.00  0.00    -0.023 C 
ATOM      5  C   UNL     1       5.059  -4.320  -0.387  0.00  0.00    +0.039 C 
ATOM      6  C   UNL     1       5.152  -4.084   1.143  0.00  0.00    +0.062 C 
ATOM      7  C   UNL     1       4.290  -2.828   1.267  0.00  0.00    +0.046 C 
ENDROOT
BRANCH   1   9
ATOM      8  C   UNL     1       8.375  -3.196   2.830  0.00  0.00    +0.276 C 
ATOM      9  O   UNL     1       7.347  -4.040   2.319  0.00  0.00    -0.499 OA
ENDBRANCH   1   9
TORSDOF 1
