REMARK  Name = 
REMARK  13 active torsions:
REMARK  status: ('A' for Active; 'I' for Inactive)
REMARK    1  A    between atoms: C_2  and  C_3
REMARK    2  A    between atoms: C_3  and  C_4
REMARK    3  A    between atoms: C_4  and  C_5
REMARK    4  A    between atoms: C_9  and  C_10
REMARK    5  A    between atoms: C_9  and  C_11
REMARK    6  A    between atoms: C_15  and  C_16
REMARK    7  A    between atoms: C_17  and  N_18
REMARK    8  A    between atoms: C_19  and  C_20
REMARK    9  A    between atoms: C_21  and  C_22
REMARK   10  A    between atoms: C_22  and  C_23
REMARK   11  A    between atoms: C_22  and  N_26
REMARK   12  A    between atoms: C_23  and  N_24
REMARK   13  A    between atoms: N_24  and  C_25
REMARK                            x       y       z     vdW  Elec       q    Type
REMARK                         _______ _______ _______ _____ _____    ______ ____
ROOT
ATOM      1  C   UNL     1       8.288   1.683  -0.171  0.00  0.00    +0.147 C 
ATOM      2  C   UNL     1       8.677   3.116   0.189  0.00  0.00    +0.247 C 
ATOM      3  O   UNL     1       9.557   3.681   0.796  0.00  0.00    -0.273 OA
ATOM      4  N   UNL     1       7.641   3.634  -0.556  0.00  0.00    -0.184 NA
ATOM      5  C   UNL     1       7.287   2.477  -0.984  0.00  0.00    +0.050 C 
ENDROOT
BRANCH   1  10
ATOM      6  C   UNL     1       7.853   1.786   3.383  0.00  0.00    -0.024 C 
ATOM      7  C   UNL     1       8.287   1.044   2.351  0.00  0.00    -0.039 C 
ATOM      8  C   UNL     1       9.483   0.147   2.145  0.00  0.00    +0.114 C 
ATOM      9  N   UNL     1       8.733  -0.425   1.009  0.00  0.00    -0.303 NA
ATOM     10  C   UNL     1       7.780   0.720   0.959  0.00  0.00    +0.056 C 
ATOM     11  C   UNL     1       6.344   0.228   0.862  0.00  0.00    +0.033 C 
ATOM     12  H   UNL     1       8.286  -1.301   1.276  0.00  0.00    +0.123 HD
BRANCH   6  13
ATOM     13  C   UNL     1       6.573   2.573   3.384  0.00  0.00    +0.031 C 
BRANCH  13  14
ATOM     14  C   UNL     1       6.287   3.288   4.709  0.00  0.00    +0.030 C 
BRANCH  14  16
ATOM     15  C   UNL     1       3.922   3.801   5.404  0.00  0.00    +0.004 C 
ATOM     16  C   UNL     1       4.986   4.039   4.627  0.00  0.00    -0.034 C 
ENDBRANCH  14  16
ENDBRANCH  13  14
ENDBRANCH   6  13
ENDBRANCH   1  10
BRANCH   5  17
ATOM     17  C   UNL     1       6.299   1.976  -1.930  0.00  0.00    +0.041 C 
ATOM     18  C   UNL     1       5.413   2.797  -2.510  0.00  0.00    +0.112 C 
BRANCH  18  19
ATOM     19  N   UNL     1       4.476   2.298  -3.379  0.00  0.00    -0.263 NA
ATOM     20  C   UNL     1       3.685   3.145  -3.955  0.00  0.00    +0.110 C 
BRANCH  20  21
ATOM     21  C   UNL     1       2.637   2.670  -4.890  0.00  0.00    +0.017 C 
ATOM     22  C   UNL     1       1.783   3.508  -5.499  0.00  0.00    -0.006 C 
BRANCH  22  23
ATOM     23  C   UNL     1       0.673   3.032  -6.403  0.00  0.00    +0.088 C 
BRANCH  23  24
ATOM     24  N   UNL     1       0.887   3.526  -7.767  0.00  0.00    -0.323 NA
ATOM     25  H   UNL     1       0.712   4.531  -7.783  0.00  0.00    +0.119 HD
ATOM     26  H   UNL     1       0.113   3.155  -8.328  0.00  0.00    +0.119 HD
ENDBRANCH  23  24
BRANCH  23  27
ATOM     27  C   UNL     1      -0.727   3.463  -5.869  0.00  0.00    +0.103 C 
BRANCH  27  28
ATOM     28  N   UNL     1      -1.814   2.996  -6.751  0.00  0.00    -0.317 NA
ATOM     29  C   UNL     1      -3.113   3.411  -6.232  0.00  0.00    +0.101 C 
ATOM     30  H   UNL     1      -1.788   1.977  -6.794  0.00  0.00    +0.122 HD
ENDBRANCH  27  28
ENDBRANCH  23  27
ENDBRANCH  22  23
ENDBRANCH  20  21
ENDBRANCH  18  19
ENDBRANCH   5  17
TORSDOF 11
