REMARK  Name = 
REMARK  11 active torsions:
REMARK  status: ('A' for Active; 'I' for Inactive)
REMARK    1  A    between atoms: C_1  and  C_2
REMARK    2  A    between atoms: C_2  and  C_3
REMARK    3  A    between atoms: C_2  and  C_7
REMARK    4  A    between atoms: C_3  and  C_4
REMARK    5  A    between atoms: C_4  and  C_5
REMARK    6  A    between atoms: C_5  and  C_6
REMARK    7  A    between atoms: C_7  and  C_8
REMARK    8  A    between atoms: C_8  and  C_9
REMARK    9  A    between atoms: C_11  and  C_14
REMARK   10  A    between atoms: C_15  and  C_16
REMARK   11  A    between atoms: N_17  and  N_18
REMARK                            x       y       z     vdW  Elec       q    Type
REMARK                         _______ _______ _______ _____ _____    ______ ____
ROOT
ATOM      1  C   UNL     1       4.667   1.492   0.405  0.00  0.00    +0.036 C 
ATOM      2  C   UNL     1       5.214   1.311  -1.020  0.00  0.00    +0.032 C 
ATOM      3  C   UNL     1       5.114   2.828   0.942  0.00  0.00    -0.001 C 
ATOM      4  C   UNL     1       6.103   2.676   1.832  0.00  0.00    -0.036 C 
ATOM      5  C   UNL     1       6.409   1.223   1.995  0.00  0.00    +0.116 C 
ATOM      6  N   UNL     1       5.315   0.521   1.315  0.00  0.00    -0.303 NA
ATOM      7  H   UNL     1       4.638   0.280   2.040  0.00  0.00    +0.123 HD
ENDROOT
BRANCH   4   8
ATOM      8  C   UNL     1       6.801   3.725   2.530  0.00  0.00    +0.006 C 
ATOM      9  C   UNL     1       7.781   3.488   3.410  0.00  0.00    +0.022 C 
BRANCH   9  10
ATOM     10  C   UNL     1       8.466   4.595   4.107  0.00  0.00    +0.138 C 
ATOM     11  N   UNL     1       9.405   4.352   4.953  0.00  0.00    -0.119 NA
BRANCH  11  12
ATOM     12  N   UNL     1       9.961   5.482   5.542  0.00  0.00    +0.080 NA
ATOM     13  O   UNL     1      10.846   5.170   6.346  0.00  0.00    -0.122 OA
ENDBRANCH  11  12
ENDBRANCH   9  10
ENDBRANCH   4   8
BRANCH   1  14
ATOM     14  C   UNL     1       3.120   1.362   0.443  0.00  0.00    +0.029 C 
BRANCH  14  16
ATOM     15  C   UNL     1       2.878  -1.195   0.759  0.00  0.00    +0.007 C 
ATOM     16  C   UNL     1       2.493   0.035  -0.072  0.00  0.00    -0.012 C 
BRANCH  16  17
ATOM     17  C   UNL     1       0.946   0.116  -0.113  0.00  0.00    +0.003 C 
BRANCH  17  18
ATOM     18  C   UNL     1       0.361   1.224  -0.995  0.00  0.00    -0.000 C 
BRANCH  18  19
ATOM     19  C   UNL     1       0.813   1.128  -2.452  0.00  0.00    -0.003 C 
ATOM     20  C   UNL     1       0.241   2.259  -3.290  0.00  0.00    +0.004 C 
ENDBRANCH  18  19
ENDBRANCH  17  18
ENDBRANCH  16  17
ENDBRANCH  14  16
ENDBRANCH   1  14
TORSDOF 8
