REMARK  Name = 
REMARK  3 active torsions:
REMARK  status: ('A' for Active; 'I' for Inactive)
REMARK    1  A    between atoms: C_5  and  C_6
REMARK    2  A    between atoms: C_7  and  C_8
REMARK    3  A    between atoms: C_13  and  C_14
REMARK                            x       y       z     vdW  Elec       q    Type
REMARK                         _______ _______ _______ _____ _____    ______ ____
ROOT
ATOM      1  C   UNL     1       1.375   0.390   0.233  0.00  0.00    +0.077 C 
ATOM      2  C   UNL     1       2.433   0.454   1.439  0.00  0.00    +0.020 C 
ATOM      3  N   UNL     1       3.079   1.249   0.623  0.00  0.00    -0.288 NA
ATOM      4  C   UNL     1       2.792   0.184  -0.384  0.00  0.00    +0.114 C 
ATOM      5  C   UNL     1       3.307  -1.139   0.245  0.00  0.00    +0.020 C 
ATOM      6  C   UNL     1       4.721  -1.458  -0.201  0.00  0.00    +0.010 C 
ATOM      7  C   UNL     1       3.153  -0.817   1.779  0.00  0.00    +0.047 C 
ENDROOT
BRANCH   7   8
ATOM      8  C   UNL     1       2.458  -1.933   2.562  0.00  0.00    +0.055 C 
ATOM      9  C   UNL     1       3.406  -3.206   2.463  0.00  0.00    +0.100 C 
ATOM     10  C   UNL     1       3.227  -3.988   3.671  0.00  0.00    -0.077 C 
ATOM     11  C   UNL     1       2.743  -3.572   4.671  0.00  0.00    +0.034 C 
ATOM     12  N   UNL     1       2.170  -2.440   5.066  0.00  0.00    -0.206 NA
ATOM     13  C   UNL     1       2.033  -1.594   4.069  0.00  0.00    +0.031 C 
ATOM     14  C   UNL     1       1.271  -0.330   4.360  0.00  0.00    +0.062 C 
ENDBRANCH   7   8
TORSDOF 1
