REMARK  Name = 
REMARK  3 active torsions:
REMARK  status: ('A' for Active; 'I' for Inactive)
REMARK    1  A    between atoms: C_1  and  C_2
REMARK    2  A    between atoms: C_3  and  C_4
REMARK    3  A    between atoms: C_5  and  C_6
REMARK                            x       y       z     vdW  Elec       q    Type
REMARK                         _______ _______ _______ _____ _____    ______ ____
ROOT
ATOM      1  C   UNL     1       4.643   0.281   1.100  0.00  0.00    +0.003 C 
ATOM      2  C   UNL     1       5.320   0.512   2.234  0.00  0.00    +0.042 C 
ENDROOT
BRANCH   1   5
ATOM      3  C   UNL     1       0.984   0.045  -0.059  0.00  0.00    +0.035 C 
ATOM      4  C   UNL     1       2.480   0.047  -0.049  0.00  0.00    -0.030 C 
ATOM      5  C   UNL     1       3.195   0.274   1.064  0.00  0.00    -0.004 C 
ENDBRANCH   1   5
BRANCH   2   6
ATOM      6  C   UNL     1       6.796   0.518   2.263  0.00  0.00    +0.251 C 
ATOM      7  O   UNL     1       7.411   0.730   3.303  0.00  0.00    -0.296 OA
ENDBRANCH   2   6
TORSDOF 2
