REMARK  Name = 
REMARK  9 active torsions:
REMARK  status: ('A' for Active; 'I' for Inactive)
REMARK    1  A    between atoms: C_1  and  C_2
REMARK    2  A    between atoms: C_2  and  C_3
REMARK    3  A    between atoms: C_3  and  N_4
REMARK    4  A    between atoms: N_4  and  C_5
REMARK    5  A    between atoms: C_12  and  N_13
REMARK    6  A    between atoms: N_13  and  S_14
REMARK    7  A    between atoms: C_18  and  C_20
REMARK    8  A    between atoms: C_20  and  C_21
REMARK    9  A    between atoms: C_21  and  C_22
REMARK                            x       y       z     vdW  Elec       q    Type
REMARK                         _______ _______ _______ _____ _____    ______ ____
ROOT
ATOM      1  C   UNL     1      10.172   0.034  -2.774  0.00  0.00    +0.008 C 
ATOM      2  C   UNL     1      10.275   0.221  -1.245  0.00  0.00    +0.077 C 
ATOM      3  C   UNL     1       9.008  -0.091  -0.549  0.00  0.00    -0.025 C 
ATOM      4  C   UNL     1       8.021   0.803  -0.669  0.00  0.00    -0.025 C 
ATOM      5  C   UNL     1       6.702   0.267  -1.112  0.00  0.00    +0.078 C 
ATOM      6  C   UNL     1       9.062   0.097  -3.572  0.00  0.00    +0.020 C 
ATOM      7  C   UNL     1       7.594   0.434  -3.520  0.00  0.00    +0.021 C 
ATOM      8  C   UNL     1       6.560   0.451  -2.628  0.00  0.00    +0.018 C 
ENDROOT
BRANCH   1   9
ATOM      9  N   UNL     1      11.429  -0.369  -3.295  0.00  0.00    -0.347 N 
ATOM     10  H   UNL     1      12.087  -0.568  -2.538  0.00  0.00    +0.146 HD
BRANCH   9  11
ATOM     11  C   UNL     1      12.161   0.242  -4.394  0.00  0.00    +0.101 C 
BRANCH  11  13
ATOM     12  C   UNL     1      12.827  -2.008  -5.376  0.00  0.00    +0.005 C 
ATOM     13  C   UNL     1      13.322  -0.690  -4.796  0.00  0.00    +0.015 C 
ENDBRANCH  11  13
ENDBRANCH   9  11
ENDBRANCH   1   9
BRANCH   8  14
ATOM     14  N   UNL     1       5.225   0.866  -2.951  0.00  0.00    -0.285 N 
ATOM     15  H   UNL     1       5.309   1.553  -3.708  0.00  0.00    +0.160 HD
BRANCH  14  16
ATOM     16  S   UNL     1       4.126  -0.318  -3.504  0.00  0.00    -0.024 S 
ATOM     17  C   UNL     1       3.131  -0.737  -1.709  0.00  0.00    +0.124 C 
ATOM     18  C   UNL     1       1.673  -1.155  -1.728  0.00  0.00    -0.064 C 
ATOM     19  C   UNL     1       1.584  -0.521  -2.864  0.00  0.00    -0.077 C 
ATOM     20  C   UNL     1       1.479   0.218  -4.188  0.00  0.00    +0.141 C 
ATOM     21  N   UNL     1       2.859   0.809  -4.101  0.00  0.00    -0.239 NA
ATOM     22  H   UNL     1       2.786   1.632  -3.496  0.00  0.00    +0.137 HD
BRANCH  20  23
ATOM     23  C   UNL     1       0.242   1.096  -4.262  0.00  0.00    +0.032 C 
BRANCH  23  24
ATOM     24  C   UNL     1       0.094   1.779  -5.620  0.00  0.00    -0.001 C 
ATOM     25  C   UNL     1      -1.253   2.477  -5.746  0.00  0.00    +0.004 C 
ENDBRANCH  23  24
ENDBRANCH  20  23
ENDBRANCH  14  16
ENDBRANCH   8  14
TORSDOF 7
