REMARK  Name = 
REMARK  15 active torsions:
REMARK  status: ('A' for Active; 'I' for Inactive)
REMARK    1  A    between atoms: C_1  and  C_2
REMARK    2  A    between atoms: C_2  and  C_3
REMARK    3  A    between atoms: C_14  and  C_15
REMARK    4  A    between atoms: C_16  and  C_17
REMARK    5  A    between atoms: C_18  and  C_19
REMARK    6  A    between atoms: C_19  and  C_20
REMARK    7  A    between atoms: C_20  and  C_21
REMARK    8  A    between atoms: C_21  and  C_22
REMARK    9  A    between atoms: C_23  and  C_24
REMARK   10  A    between atoms: C_25  and  C_26
REMARK   11  A    between atoms: C_27  and  C_28
REMARK   12  A    between atoms: C_28  and  C_29
REMARK   13  A    between atoms: C_29  and  C_30
REMARK   14  A    between atoms: C_30  and  C_31
REMARK   15  A    between atoms: C_32  and  N_33
REMARK                            x       y       z     vdW  Elec       q    Type
REMARK                         _______ _______ _______ _____ _____    ______ ____
ROOT
ATOM      1  C   UNL     1       2.726  -8.033   2.821  0.00  0.00    -0.004 C 
ATOM      2  C   UNL     1       2.978  -9.309   2.458  0.00  0.00    -0.027 C 
ENDROOT
BRANCH   1   4
ATOM      3  C   UNL     1       1.841  -5.760   2.331  0.00  0.00    +0.008 C 
ATOM      4  C   UNL     1       2.150  -7.013   1.923  0.00  0.00    +0.000 C 
BRANCH   3  16
ATOM      5  C   UNL     1       2.806  -2.169  -1.492  0.00  0.00    +0.028 C 
ATOM      6  C   UNL     1       4.287  -2.237  -2.123  0.00  0.00    +0.017 C 
ATOM      7  C   UNL     1       4.578  -3.582  -2.781  0.00  0.00    +0.084 C 
ATOM      8  C   UNL     1       4.056  -4.516  -1.711  0.00  0.00    +0.147 C 
ATOM      9  C   UNL     1       2.673  -4.608  -1.855  0.00  0.00    -0.075 C 
ATOM     10  C   UNL     1       2.069  -3.683  -1.065  0.00  0.00    +0.012 C 
ATOM     11  C   UNL     1       2.273  -4.260   0.172  0.00  0.00    +0.031 C 
ATOM     12  C   UNL     1       3.528  -3.936   0.565  0.00  0.00    +0.118 C 
ATOM     13  O   UNL     1       4.551  -4.149  -0.362  0.00  0.00    -0.456 OA
ATOM     14  C   UNL     1       3.285  -2.868   1.643  0.00  0.00    +0.102 C 
ATOM     15  C   UNL     1       1.984  -3.416   2.230  0.00  0.00    -0.011 C 
ATOM     16  C   UNL     1       1.636  -4.497   1.493  0.00  0.00    -0.017 C 
BRANCH   5  18
ATOM     17  C   UNL     1       0.720  -0.724  -1.829  0.00  0.00    +0.004 C 
ATOM     18  C   UNL     1       2.048  -1.178  -2.386  0.00  0.00    +0.005 C 
ENDBRANCH   5  18
ENDBRANCH   3  16
ENDBRANCH   1   4
BRANCH   2  19
ATOM     19  C   UNL     1       3.647 -10.384   3.300  0.00  0.00    +0.027 C 
BRANCH  19  20
ATOM     20  C   UNL     1       2.697 -11.560   3.589  0.00  0.00    +0.008 C 
BRANCH  20  21
ATOM     21  C   UNL     1       3.359 -12.718   4.356  0.00  0.00    +0.027 C 
BRANCH  21  22
ATOM     22  C   UNL     1       2.376 -13.830   4.642  0.00  0.00    -0.027 C 
ATOM     23  C   UNL     1       2.082 -14.285   5.873  0.00  0.00    -0.004 C 
BRANCH  23  24
ATOM     24  C   UNL     1       1.126 -15.346   6.127  0.00  0.00    -0.000 C 
ATOM     25  C   UNL     1       0.837 -15.803   7.359  0.00  0.00    -0.000 C 
BRANCH  25  26
ATOM     26  C   UNL     1      -0.132 -16.831   7.613  0.00  0.00    -0.004 C 
ATOM     27  C   UNL     1      -0.461 -17.279   8.830  0.00  0.00    -0.027 C 
BRANCH  27  28
ATOM     28  C   UNL     1      -1.468 -18.350   9.135  0.00  0.00    +0.027 C 
BRANCH  28  29
ATOM     29  C   UNL     1      -2.609 -17.821  10.004  0.00  0.00    +0.008 C 
BRANCH  29  30
ATOM     30  C   UNL     1      -3.638 -18.915  10.303  0.00  0.00    +0.029 C 
BRANCH  30  31
ATOM     31  C   UNL     1      -4.739 -18.383  11.175  0.00  0.00    -0.012 C 
ATOM     32  C   UNL     1      -5.022 -18.858  12.395  0.00  0.00    +0.060 C 
BRANCH  32  33
ATOM     33  N   UNL     1      -5.991 -18.399  13.238  0.00  0.00    -0.364 N 
ATOM     34  H   UNL     1      -6.711 -17.840  12.788  0.00  0.00    +0.142 HD
ATOM     35  H   UNL     1      -6.371 -19.109  13.858  0.00  0.00    +0.142 HD
ENDBRANCH  32  33
ENDBRANCH  30  31
ENDBRANCH  29  30
ENDBRANCH  28  29
ENDBRANCH  27  28
ENDBRANCH  25  26
ENDBRANCH  23  24
ENDBRANCH  21  22
ENDBRANCH  20  21
ENDBRANCH  19  20
ENDBRANCH   2  19
TORSDOF 14
