REMARK  Name = 
REMARK  20 active torsions:
REMARK  status: ('A' for Active; 'I' for Inactive)
REMARK    1  A    between atoms: C_1  and  C_2
REMARK    2  A    between atoms: C_3  and  C_4
REMARK    3  A    between atoms: C_4  and  C_6
REMARK    4  A    between atoms: C_7  and  N_8
REMARK    5  A    between atoms: C_10  and  N_11
REMARK    6  A    between atoms: C_12  and  C_13
REMARK    7  A    between atoms: C_16  and  C_17
REMARK    8  A    between atoms: C_16  and  C_18
REMARK    9  A    between atoms: C_19  and  N_20
REMARK   10  A    between atoms: C_21  and  C_22
REMARK   11  A    between atoms: C_23  and  C_24
REMARK   12  A    between atoms: C_25  and  C_26
REMARK   13  A    between atoms: C_26  and  C_27
REMARK   14  A    between atoms: C_26  and  N_28
REMARK   15  A    between atoms: N_28  and  C_29
REMARK   16  A    between atoms: C_29  and  C_30
REMARK   17  A    between atoms: C_30  and  C_31
REMARK   18  A    between atoms: C_31  and  C_32
REMARK   19  A    between atoms: C_32  and  C_33
REMARK   20  A    between atoms: C_33  and  C_34
REMARK                            x       y       z     vdW  Elec       q    Type
REMARK                         _______ _______ _______ _____ _____    ______ ____
ROOT
ATOM      1  N   UNL     1       4.373   2.980  -8.891  0.00  0.00    -0.303 N 
ATOM      2  C   UNL     1       3.141   2.772  -9.683  0.00  0.00    +0.086 C 
ATOM      3  C   UNL     1       3.342   2.906 -11.188  0.00  0.00    +0.029 C 
ATOM      4  C   UNL     1       2.699   1.326  -9.320  0.00  0.00    +0.105 C 
ATOM      5  N   UNL     1       3.686   0.753  -8.372  0.00  0.00    -0.291 NA
ATOM      6  C   UNL     1       4.353   1.952  -7.837  0.00  0.00    +0.104 C 
ATOM      7  C   UNL     1       5.768   1.553  -7.384  0.00  0.00    +0.054 C 
ATOM      8  H   UNL     1       4.388   0.276  -8.935  0.00  0.00    +0.124 HD
ENDROOT
BRANCH   1  11
ATOM      9  N   UNL     1       4.856   6.064 -10.388  0.00  0.00    -0.152 NA
ATOM     10  C   UNL     1       4.992   5.147  -9.676  0.00  0.00    +0.014 C 
ATOM     11  C   UNL     1       5.190   4.099  -8.923  0.00  0.00    +0.146 C 
BRANCH   9  13
ATOM     12  C   UNL     1       3.349   7.885  -9.461  0.00  0.00    +0.001 C 
ATOM     13  C   UNL     1       4.049   6.998  -9.858  0.00  0.00    +0.053 C 
BRANCH  12  14
ATOM     14  C   UNL     1       2.517   9.003  -9.082  0.00  0.00    +0.230 C 
ATOM     15  O   UNL     1       1.961   9.641  -9.968  0.00  0.00    -0.278 OA
BRANCH  14  18
ATOM     16  C   UNL     1       1.243  10.684  -5.859  0.00  0.00    +0.035 C 
ATOM     17  C   UNL     1       1.561  10.364  -7.278  0.00  0.00    -0.026 C 
ATOM     18  C   UNL     1       2.344   9.336  -7.644  0.00  0.00    +0.056 C 
ENDBRANCH  14  18
ENDBRANCH  12  14
ENDBRANCH   9  13
ENDBRANCH   1  11
BRANCH   6  19
ATOM     19  C   UNL     1       3.582   2.507  -6.647  0.00  0.00    +0.034 C 
ATOM     20  C   UNL     1       2.820   1.805  -5.790  0.00  0.00    +0.110 C 
BRANCH  20  21
ATOM     21  N   UNL     1       2.117   2.420  -4.785  0.00  0.00    -0.263 NA
ATOM     22  C   UNL     1       1.415   1.652  -4.015  0.00  0.00    +0.110 C 
BRANCH  22  23
ATOM     23  C   UNL     1       0.626   2.222  -2.899  0.00  0.00    +0.020 C 
ATOM     24  C   UNL     1      -0.096   1.439  -2.084  0.00  0.00    +0.001 C 
BRANCH  24  25
ATOM     25  C   UNL     1      -0.783   1.966  -0.923  0.00  0.00    -0.003 C 
ATOM     26  C   UNL     1      -1.515   1.217  -0.084  0.00  0.00    -0.009 C 
BRANCH  26  27
ATOM     27  C   UNL     1      -2.127   1.751   1.190  0.00  0.00    +0.074 C 
ATOM     28  C   UNL     1      -3.647   1.566   1.117  0.00  0.00    +0.028 C 
BRANCH  27  29
ATOM     29  N   UNL     1      -1.579   1.071   2.376  0.00  0.00    -0.310 NA
ATOM     30  H   UNL     1      -1.787   0.076   2.333  0.00  0.00    +0.122 HD
BRANCH  29  31
ATOM     31  C   UNL     1      -0.130   1.279   2.509  0.00  0.00    +0.081 C 
BRANCH  31  32
ATOM     32  C   UNL     1       0.456   0.571   3.734  0.00  0.00    +0.015 C 
BRANCH  32  33
ATOM     33  C   UNL     1       1.975   0.792   3.790  0.00  0.00    +0.001 C 
BRANCH  33  34
ATOM     34  C   UNL     1       2.612   0.104   4.996  0.00  0.00    -0.000 C 
BRANCH  34  35
ATOM     35  C   UNL     1       4.123   0.337   5.037  0.00  0.00    -0.003 C 
ATOM     36  C   UNL     1       4.752  -0.347   6.241  0.00  0.00    +0.004 C 
ENDBRANCH  34  35
ENDBRANCH  33  34
ENDBRANCH  32  33
ENDBRANCH  31  32
ENDBRANCH  29  31
ENDBRANCH  27  29
ENDBRANCH  26  27
ENDBRANCH  24  25
ENDBRANCH  22  23
ENDBRANCH  20  21
ENDBRANCH   6  19
TORSDOF 15
