REMARK  Name = 
REMARK  12 active torsions:
REMARK  status: ('A' for Active; 'I' for Inactive)
REMARK    1  A    between atoms: C_1  and  C_2
REMARK    2  A    between atoms: C_2  and  C_3
REMARK    3  A    between atoms: C_3  and  C_4
REMARK    4  A    between atoms: C_4  and  C_5
REMARK    5  A    between atoms: C_5  and  C_6
REMARK    6  A    between atoms: C_18  and  C_21
REMARK    7  A    between atoms: C_22  and  N_23
REMARK    8  A    between atoms: N_23  and  C_24
REMARK    9  A    between atoms: N_23  and  C_26
REMARK   10  A    between atoms: C_24  and  C_25
REMARK   11  A    between atoms: C_26  and  C_27
REMARK   12  A    between atoms: C_27  and  C_28
REMARK                            x       y       z     vdW  Elec       q    Type
REMARK                         _______ _______ _______ _____ _____    ______ ____
ROOT
ATOM      1  C   UNL     1       6.354  -2.125   2.467  0.00  0.00    -0.023 C 
ATOM      2  C   UNL     1       6.453  -3.189   3.328  0.00  0.00    -0.041 C 
ATOM      3  C   UNL     1       7.382  -3.203   4.541  0.00  0.00    +0.057 C 
ATOM      4  C   UNL     1       6.899  -4.286   5.681  0.00  0.00    +0.074 C 
ATOM      5  N   UNL     1       6.991  -5.520   4.918  0.00  0.00    -0.346 N 
ATOM      6  C   UNL     1       6.108  -5.571   3.853  0.00  0.00    +0.076 C 
ATOM      7  C   UNL     1       5.630  -4.441   3.285  0.00  0.00    -0.007 C 
ATOM      8  C   UNL     1       4.207  -4.358   3.036  0.00  0.00    +0.030 C 
ATOM      9  C   UNL     1       3.225  -5.127   3.539  0.00  0.00    +0.122 C 
ATOM     10  N   UNL     1       1.967  -4.598   3.689  0.00  0.00    -0.205 NA
ATOM     11  C   UNL     1       1.780  -4.424   4.829  0.00  0.00    +0.039 C 
ATOM     12  C   UNL     1       1.899  -4.598   6.025  0.00  0.00    -0.046 C 
ATOM     13  C   UNL     1       2.306  -5.295   7.052  0.00  0.00    +0.006 C 
ATOM     14  C   UNL     1       4.095  -5.333   7.119  0.00  0.00    +0.046 C 
ATOM     15  C   UNL     1       5.374  -4.168   6.544  0.00  0.00    +0.028 C 
ATOM     16  H   UNL     1       7.237  -6.374   5.405  0.00  0.00    +0.146 HD
ENDROOT
BRANCH  13  17
ATOM     17  C   UNL     1       1.158  -6.351   7.498  0.00  0.00    +0.027 C 
ATOM     18  C   UNL     1      -0.217  -6.407   7.180  0.00  0.00    +0.071 C 
BRANCH  18  19
ATOM     19  N   UNL     1      -1.357  -7.342   7.461  0.00  0.00    -0.336 N 
BRANCH  19  20
ATOM     20  C   UNL     1      -1.259  -8.404   8.518  0.00  0.00    +0.101 C 
ATOM     21  C   UNL     1      -1.248  -9.807   7.916  0.00  0.00    +0.024 C 
ENDBRANCH  19  20
BRANCH  19  22
ATOM     22  C   UNL     1      -2.886  -7.167   7.219  0.00  0.00    +0.104 C 
BRANCH  22  23
ATOM     23  C   UNL     1      -3.582  -6.628   5.969  0.00  0.00    +0.015 C 
ATOM     24  C   UNL     1      -3.425  -7.410   4.674  0.00  0.00    +0.005 C 
ENDBRANCH  22  23
ENDBRANCH  19  22
ENDBRANCH  18  19
ENDBRANCH  13  17
BRANCH   1  25
ATOM     25  C   UNL     1       5.101  -1.861   1.660  0.00  0.00    +0.027 C 
BRANCH  25  26
ATOM     26  C   UNL     1       4.845  -0.746   0.654  0.00  0.00    +0.004 C 
BRANCH  26  27
ATOM     27  C   UNL     1       5.359  -1.066  -0.739  0.00  0.00    +0.000 C 
BRANCH  27  29
ATOM     28  C   UNL     1       5.326  -0.356  -3.143  0.00  0.00    +0.004 C 
ATOM     29  C   UNL     1       4.766  -0.094  -1.758  0.00  0.00    -0.003 C 
ENDBRANCH  27  29
ENDBRANCH  26  27
ENDBRANCH  25  26
ENDBRANCH   1  25
TORSDOF 9
