REMARK  Name = 
REMARK  6 active torsions:
REMARK  status: ('A' for Active; 'I' for Inactive)
REMARK    1  A    between atoms: C_2  and  C_3
REMARK    2  A    between atoms: C_4  and  C_5
REMARK    3  A    between atoms: C_5  and  C_6
REMARK    4  A    between atoms: C_18  and  C_19
REMARK    5  A    between atoms: C_20  and  C_21
REMARK    6  A    between atoms: C_33  and  C_34
REMARK                            x       y       z     vdW  Elec       q    Type
REMARK                         _______ _______ _______ _____ _____    ______ ____
ROOT
ATOM      1  C   UNL     1      12.546  -4.858   3.743  0.00  0.00    +0.078 C 
ATOM      2  C   UNL     1      12.709  -6.301   4.381  0.00  0.00    +0.028 C 
ATOM      3  C   UNL     1      11.763  -6.330   5.559  0.00  0.00    +0.054 C 
ATOM      4  C   UNL     1      10.641  -5.656   4.856  0.00  0.00    +0.021 C 
ATOM      5  C   UNL     1       9.478  -6.268   4.635  0.00  0.00    +0.093 C 
ATOM      6  N   UNL     1      11.086  -4.617   4.003  0.00  0.00    -0.320 N 
ATOM      7  C   UNL     1      10.006  -3.905   3.170  0.00  0.00    +0.122 C 
ATOM      8  C   UNL     1       8.495  -4.372   3.647  0.00  0.00    +0.109 C 
ATOM      9  N   UNL     1       8.721  -5.859   3.541  0.00  0.00    -0.305 N 
ATOM     10  C   UNL     1       9.412  -5.907   2.239  0.00  0.00    +0.076 C 
ATOM     11  C   UNL     1       9.667  -4.610   1.876  0.00  0.00    -0.033 C 
ATOM     12  C   UNL     1       8.414  -3.856   1.346  0.00  0.00    +0.043 C 
ATOM     13  C   UNL     1       7.414  -4.108   2.514  0.00  0.00    +0.038 C 
ENDROOT
BRANCH  13  14
ATOM     14  C   UNL     1       6.374  -5.248   2.147  0.00  0.00    -0.024 C 
ATOM     15  C   UNL     1       5.560  -5.964   2.962  0.00  0.00    -0.008 C 
BRANCH  15  16
ATOM     16  C   UNL     1       4.456  -6.996   2.639  0.00  0.00    +0.100 C 
ATOM     17  C   UNL     1       3.188  -6.569   3.351  0.00  0.00    -0.009 C 
ATOM     18  C   UNL     1       2.468  -7.217   4.265  0.00  0.00    -0.029 C 
ATOM     19  C   UNL     1       1.041  -6.861   4.502  0.00  0.00    +0.027 C 
ATOM     20  C   UNL     1       0.055  -8.029   4.384  0.00  0.00    +0.012 C 
ATOM     21  C   UNL     1      -0.079  -8.823   3.047  0.00  0.00    +0.016 C 
ATOM     22  C   UNL     1       1.214  -9.144   2.253  0.00  0.00    +0.040 C 
ATOM     23  C   UNL     1       1.663  -8.037   1.299  0.00  0.00    -0.052 C 
ATOM     24  C   UNL     1       0.754  -7.119   0.905  0.00  0.00    +0.000 C 
ATOM     25  C   UNL     1      -0.633  -7.140   1.345  0.00  0.00    -0.004 C 
ATOM     26  C   UNL     1      -1.080  -8.134   2.134  0.00  0.00    -0.023 C 
ATOM     27  N   UNL     1       4.101  -7.097   1.197  0.00  0.00    -0.300 NA
ATOM     28  C   UNL     1       3.102  -8.119   0.766  0.00  0.00    +0.078 C 
ATOM     29  C   UNL     1       3.042  -8.054  -0.779  0.00  0.00    +0.029 C 
ATOM     30  H   UNL     1       4.966  -7.308   0.704  0.00  0.00    +0.123 HD
ENDBRANCH  15  16
ENDBRANCH  13  14
BRANCH   1  31
ATOM     31  C   UNL     1      13.155  -5.036   2.339  0.00  0.00    +0.049 C 
BRANCH  31  33
ATOM     32  C   UNL     1      13.614  -2.587   1.787  0.00  0.00    -0.005 C 
ATOM     33  C   UNL     1      13.748  -3.898   1.565  0.00  0.00    -0.025 C 
BRANCH  32  35
ATOM     34  C   UNL     1      14.086  -0.301   1.065  0.00  0.00    +0.008 C 
ATOM     35  C   UNL     1      14.265  -1.619   0.937  0.00  0.00    -0.008 C 
ENDBRANCH  32  35
ENDBRANCH  31  33
ENDBRANCH   1  31
TORSDOF 5
