REMARK  Name = 
REMARK  2 active torsions:
REMARK  status: ('A' for Active; 'I' for Inactive)
REMARK    1  A    between atoms: C_3  and  C_4
REMARK    2  A    between atoms: N_8  and  C_9
REMARK                            x       y       z     vdW  Elec       q    Type
REMARK                         _______ _______ _______ _____ _____    ______ ____
ROOT
ATOM      1  C   UNL     1      -1.516  -0.241   0.034  0.00  0.00    +0.076 C 
ATOM      2  C   UNL     1      -1.395   0.947  -0.607  0.00  0.00    +0.034 C 
ATOM      3  C   UNL     1      -0.236   1.292   0.283  0.00  0.00    +0.129 C 
ATOM      4  C   UNL     1      -0.386   2.365   1.343  0.00  0.00    +0.059 C 
ATOM      5  N   UNL     1      -0.488  -0.060   0.849  0.00  0.00    -0.287 N 
ATOM      6  C   UNL     1       0.687  -0.811   0.693  0.00  0.00    +0.092 C 
ATOM      7  C   UNL     1       1.622  -0.089   0.057  0.00  0.00    +0.096 C 
ATOM      8  N   UNL     1       1.113   1.167  -0.266  0.00  0.00    -0.249 N 
ENDROOT
BRANCH   8   9
ATOM      9  C   UNL     1       1.868   2.124  -1.088  0.00  0.00    +0.230 C 
ATOM     10  C   UNL     1       1.308   3.304  -1.396  0.00  0.00    +0.260 C 
ATOM     11  O   UNL     1       2.596   3.048  -1.883  0.00  0.00    -0.441 OA
ENDBRANCH   8   9
TORSDOF 1
