REMARK  Name = 
REMARK  1 active torsions:
REMARK  status: ('A' for Active; 'I' for Inactive)
REMARK    1  A    between atoms: CA_5  and  C_6
REMARK                            x       y       z     vdW  Elec       q    Type
REMARK                         _______ _______ _______ _____ _____    ______ ____
ROOT
ATOM      1  C   UNL     1      -2.200  -2.176   1.836  0.00  0.00    +0.006 C 
ATOM      2  C   UNL     1      -3.177  -1.306   0.992  0.00  0.00    +0.005 C 
ATOM      3  C   UNL     1      -3.379  -1.644  -0.517  0.00  0.00    +0.033 C 
ATOM      4  C   UNL     1      -2.131  -1.556  -1.410  0.00  0.00    -0.037 C 
ATOM      5  CA  UNL     1      -1.294  -0.291  -1.362  0.00  0.00    +0.194 C 
ATOM      6  C   UNL     1      -1.259  -2.571  -1.266  0.00  0.00    +0.024 C 
ATOM      7  C   UNL     1      -0.688  -1.866  -0.062  0.00  0.00    +0.037 C 
ATOM      8  N   UNL     1      -0.468  -0.571  -0.146  0.00  0.00    -0.273 NA
ATOM      9  C   UNL     1      -0.835  -2.577   1.237  0.00  0.00    +0.055 C 
ENDROOT
BRANCH   5  10
ATOM     10  C   UNL     1      -2.083   0.996  -1.190  0.00  0.00    +0.254 C 
ATOM     11  O   UNL     1      -3.019   1.328  -1.916  0.00  0.00    -0.298 OA
ENDBRANCH   5  10
TORSDOF 1
