REMARK  Name = 
REMARK  15 active torsions:
REMARK  status: ('A' for Active; 'I' for Inactive)
REMARK    1  A    between atoms: C_7  and  C_8
REMARK    2  A    between atoms: C_16  and  C_17
REMARK    3  A    between atoms: C_18  and  C_19
REMARK    4  A    between atoms: C_19  and  C_21
REMARK    5  A    between atoms: C_21  and  C_22
REMARK    6  A    between atoms: C_21  and  C_33
REMARK    7  A    between atoms: C_22  and  C_23
REMARK    8  A    between atoms: C_23  and  C_24
REMARK    9  A    between atoms: C_29  and  C_30
REMARK   10  A    between atoms: C_30  and  C_31
REMARK   11  A    between atoms: C_31  and  C_32
REMARK   12  A    between atoms: C_33  and  C_34
REMARK   13  A    between atoms: C_34  and  C_35
REMARK   14  A    between atoms: C_35  and  C_36
REMARK   15  A    between atoms: C_36  and  N_37
REMARK                            x       y       z     vdW  Elec       q    Type
REMARK                         _______ _______ _______ _____ _____    ______ ____
ROOT
ATOM      1  C   UNL     1      -1.388  -8.635   1.072  0.00  0.00    -0.051 C 
ATOM      2  C   UNL     1      -0.146  -8.452   0.584  0.00  0.00    +0.012 C 
ENDROOT
BRANCH   1   4
ATOM      3  C   UNL     1      -2.387  -6.466   0.815  0.00  0.00    +0.017 C 
ATOM      4  C   UNL     1      -2.151  -7.525   1.608  0.00  0.00    +0.004 C 
BRANCH   3  18
ATOM      5  C   UNL     1      -1.471  -2.403  -0.829  0.00  0.00    +0.063 C 
ATOM      6  C   UNL     1      -1.868  -3.803  -0.197  0.00  0.00    -0.047 C 
ATOM      7  C   UNL     1      -3.126  -4.060   0.350  0.00  0.00    -0.025 C 
ATOM      8  C   UNL     1      -3.800  -2.701   0.808  0.00  0.00    +0.044 C 
ATOM      9  C   UNL     1      -2.618  -1.769   1.299  0.00  0.00    -0.018 C 
ATOM     10  C   UNL     1      -1.370  -2.024   0.734  0.00  0.00    -0.055 C 
ATOM     11  C   UNL     1      -0.688  -3.526   0.821  0.00  0.00    +0.104 C 
ATOM     12  C   UNL     1      -5.026  -2.633   1.733  0.00  0.00    +0.031 C 
ATOM     13  C   UNL     1      -6.284  -3.284   1.118  0.00  0.00    +0.102 C 
ATOM     14  N   UNL     1      -7.057  -4.039   2.133  0.00  0.00    -0.343 N 
ATOM     15  C   UNL     1      -6.715  -5.366   2.412  0.00  0.00    +0.129 C 
ATOM     16  C   UNL     1      -5.484  -5.705   2.176  0.00  0.00    -0.054 C 
ATOM     17  C   UNL     1      -4.379  -5.621   1.722  0.00  0.00    -0.060 C 
ATOM     18  C   UNL     1      -3.277  -5.342   1.085  0.00  0.00    +0.029 C 
ATOM     19  H   UNL     1      -7.042  -3.520   3.015  0.00  0.00    +0.146 HD
BRANCH  11  20
ATOM     20  C   UNL     1       0.737  -3.683   0.176  0.00  0.00    +0.235 C 
ATOM     21  O   UNL     1       1.205  -4.677  -0.376  0.00  0.00    -0.300 OA
ENDBRANCH  11  20
ENDBRANCH   3  18
ENDBRANCH   1   4
BRANCH   1  22
ATOM     22  C   UNL     1      -2.161  -9.952   1.026  0.00  0.00    +0.019 C 
BRANCH  22  23
ATOM     23  C   UNL     1      -2.952  -9.998  -0.305  0.00  0.00    +0.013 C 
BRANCH  23  24
ATOM     24  C   UNL     1      -3.903 -11.192  -0.440  0.00  0.00    +0.035 C 
BRANCH  24  25
ATOM     25  C   UNL     1      -4.649 -11.194  -1.762  0.00  0.00    -0.048 C 
ATOM     26  C   UNL     1      -4.057 -11.775  -2.828  0.00  0.00    -0.023 C 
ATOM     27  C   UNL     1      -4.706 -11.893  -4.174  0.00  0.00    +0.031 C 
ATOM     28  C   UNL     1      -6.231 -11.799  -4.118  0.00  0.00    +0.031 C 
ATOM     29  C   UNL     1      -6.736 -10.949  -2.991  0.00  0.00    -0.023 C 
ATOM     30  C   UNL     1      -6.003 -10.636  -1.901  0.00  0.00    -0.048 C 
BRANCH  30  31
ATOM     31  C   UNL     1      -6.639  -9.788  -0.814  0.00  0.00    +0.035 C 
BRANCH  31  32
ATOM     32  C   UNL     1      -6.386  -8.279  -0.924  0.00  0.00    +0.001 C 
ATOM     33  C   UNL     1      -7.003  -7.643  -2.161  0.00  0.00    +0.004 C 
ENDBRANCH  31  32
ENDBRANCH  30  31
ENDBRANCH  24  25
ENDBRANCH  23  24
ENDBRANCH  22  23
BRANCH  22  34
ATOM     34  C   UNL     1      -1.270 -11.192   1.216  0.00  0.00    +0.008 C 
BRANCH  34  35
ATOM     35  C   UNL     1      -0.502 -11.178   2.539  0.00  0.00    +0.002 C 
BRANCH  35  36
ATOM     36  C   UNL     1       0.378 -12.419   2.652  0.00  0.00    +0.015 C 
BRANCH  36  37
ATOM     37  C   UNL     1       1.151 -12.412   3.965  0.00  0.00    +0.077 C 
BRANCH  37  38
ATOM     38  N   UNL     1       1.974 -13.609   4.064  0.00  0.00    -0.330 NA
ATOM     39  H   UNL     1       1.378 -14.436   4.034  0.00  0.00    +0.118 HD
ATOM     40  H   UNL     1       2.440 -13.622   4.969  0.00  0.00    +0.118 HD
ENDBRANCH  37  38
ENDBRANCH  36  37
ENDBRANCH  35  36
ENDBRANCH  34  35
ENDBRANCH  22  34
ENDBRANCH   1  22
TORSDOF 14
