REMARK  Name = 
REMARK  4 active torsions:
REMARK  status: ('A' for Active; 'I' for Inactive)
REMARK    1  A    between atoms: C_6  and  C_7
REMARK    2  A    between atoms: C_9  and  C_10
REMARK    3  A    between atoms: C_20  and  C_21
REMARK    4  A    between atoms: C_21  and  N_23
REMARK                            x       y       z     vdW  Elec       q    Type
REMARK                         _______ _______ _______ _____ _____    ______ ____
ROOT
ATOM      1  C   UNL     1       3.763   2.219   0.436  0.00  0.00    +0.138 C 
ATOM      2  N   UNL     1       5.023   2.921   0.251  0.00  0.00    -0.345 N 
ATOM      3  C   UNL     1       5.493   4.030   0.920  0.00  0.00    +0.068 C 
ATOM      4  C   UNL     1       4.993   5.178   1.393  0.00  0.00    +0.023 C 
ATOM      5  C   UNL     1       3.635   5.750   1.399  0.00  0.00    -0.021 C 
ATOM      6  C   UNL     1       3.288   7.010   1.832  0.00  0.00    -0.043 C 
ATOM      7  C   UNL     1       1.829   7.342   2.188  0.00  0.00    +0.044 C 
ATOM      8  C   UNL     1       4.275   7.954   2.371  0.00  0.00    +0.007 C 
ATOM      9  C   UNL     1       4.061   8.945   3.266  0.00  0.00    -0.049 C 
ATOM     10  C   UNL     1       2.898   9.870   3.510  0.00  0.00    +0.044 C 
ATOM     11  C   UNL     1       4.958   8.909   4.407  0.00  0.00    +0.018 C 
ATOM     12  C   UNL     1       5.006   7.908   5.319  0.00  0.00    +0.072 C 
ATOM     13  N   UNL     1       4.475   6.623   5.498  0.00  0.00    -0.327 N 
ATOM     14  C   UNL     1       3.727   5.768   4.669  0.00  0.00    +0.068 C 
ATOM     15  C   UNL     1       3.742   4.420   4.477  0.00  0.00    -0.000 C 
ATOM     16  C   UNL     1       2.940   3.476   3.474  0.00  0.00    +0.059 C 
ATOM     17  C   UNL     1       2.151   4.011   2.295  0.00  0.00    -0.015 C 
ATOM     18  C   UNL     1       2.489   4.868   1.325  0.00  0.00    +0.005 C 
ATOM     19  C   UNL     1       3.564   2.080   3.047  0.00  0.00    -0.009 C 
ATOM     20  C   UNL     1       3.725   1.516   1.799  0.00  0.00    -0.013 C 
ATOM     21  H   UNL     1       5.767   2.242   0.095  0.00  0.00    +0.146 HD
ATOM     22  H   UNL     1       4.950   6.108   6.256  0.00  0.00    +0.151 HD
ENDROOT
BRANCH  20  23
ATOM     23  C   UNL     1       3.702   0.052   1.578  0.00  0.00    +0.022 C 
ATOM     24  C   UNL     1       4.679  -0.782   1.966  0.00  0.00    +0.033 C 
BRANCH  23  25
ATOM     25  N   UNL     1       2.644  -0.442   0.822  0.00  0.00    -0.358 N 
ATOM     26  H   UNL     1       1.746  -0.018   1.065  0.00  0.00    +0.142 HD
ATOM     27  H   UNL     1       2.583  -1.453   0.778  0.00  0.00    +0.142 HD
ENDBRANCH  23  25
ENDBRANCH  20  23
TORSDOF 2
