REMARK  Name = 
REMARK  15 active torsions:
REMARK  status: ('A' for Active; 'I' for Inactive)
REMARK    1  A    between atoms: C_4  and  C_5
REMARK    2  A    between atoms: C_5  and  C_6
REMARK    3  A    between atoms: C_6  and  N_7
REMARK    4  A    between atoms: C_6  and  C_8
REMARK    5  A    between atoms: N_10  and  C_11
REMARK    6  A    between atoms: C_11  and  C_12
REMARK    7  A    between atoms: C_12  and  N_13
REMARK    8  A    between atoms: N_13  and  C_14
REMARK    9  A    between atoms: C_15  and  C_16
REMARK   10  A    between atoms: C_15  and  N_19
REMARK   11  A    between atoms: C_16  and  C_17
REMARK   12  A    between atoms: C_17  and  C_18
REMARK   13  A    between atoms: C_21  and  C_22
REMARK   14  A    between atoms: C_23  and  C_24
REMARK   15  A    between atoms: C_24  and  C_26
REMARK                            x       y       z     vdW  Elec       q    Type
REMARK                         _______ _______ _______ _____ _____    ______ ____
ROOT
ATOM      1  C   UNL     1       9.174  -1.950   3.785  0.00  0.00    +0.119 C 
ENDROOT
BRANCH   1   2
ATOM      2  N   UNL     1      10.010  -3.054   3.278  0.00  0.00    -0.347 N 
ATOM      3  H   UNL     1       9.831  -3.155   2.277  0.00  0.00    +0.146 HD
BRANCH   2   4
ATOM      4  C   UNL     1      11.374  -3.142   3.522  0.00  0.00    +0.091 C 
ATOM      5  C   UNL     1      12.039  -3.916   4.407  0.00  0.00    +0.064 C 
BRANCH   5   6
ATOM      6  N   UNL     1      13.422  -3.884   4.408  0.00  0.00    -0.208 NA
ATOM      7  C   UNL     1      13.972  -4.901   4.640  0.00  0.00    -0.012 C 
ATOM      8  C   UNL     1      14.640  -5.977   4.940  0.00  0.00    +0.072 C 
BRANCH   8   9
ATOM      9  C   UNL     1      14.413  -7.248   4.290  0.00  0.00    +0.010 C 
ATOM     10  C   UNL     1      15.042  -8.385   4.634  0.00  0.00    +0.003 C 
BRANCH  10  11
ATOM     11  C   UNL     1      14.832  -9.679   4.000  0.00  0.00    -0.058 C 
ATOM     12  C   UNL     1      13.640 -10.078   3.529  0.00  0.00    +0.012 C 
ATOM     13  C   UNL     1      16.006 -10.622   3.955  0.00  0.00    +0.043 C 
ENDBRANCH  10  11
ENDBRANCH   8   9
ENDBRANCH   5   6
BRANCH   5  14
ATOM     14  C   UNL     1      11.271  -4.787   5.392  0.00  0.00    +0.057 C 
BRANCH  14  15
ATOM     15  C   UNL     1      11.594  -4.535   6.870  0.00  0.00    +0.003 C 
ATOM     16  C   UNL     1      11.241  -3.134   7.345  0.00  0.00    +0.004 C 
ENDBRANCH  14  15
ENDBRANCH   5  14
ENDBRANCH   2   4
ENDBRANCH   1   2
BRANCH   1  17
ATOM     17  C   UNL     1       9.640  -0.554   3.341  0.00  0.00    +0.123 C 
BRANCH  17  20
ATOM     18  C   UNL     1       7.491   0.728   3.341  0.00  0.00    +0.230 C 
ATOM     19  O   UNL     1       6.965   0.050   2.466  0.00  0.00    -0.274 OA
ATOM     20  N   UNL     1       8.776   0.518   3.808  0.00  0.00    -0.313 N 
ATOM     21  H   UNL     1       8.997   0.998   4.678  0.00  0.00    +0.149 HD
BRANCH  18  22
ATOM     22  C   UNL     1       6.824   1.944   4.022  0.00  0.00    +0.142 C 
BRANCH  22  23
ATOM     23  N   UNL     1       7.006   1.813   5.497  0.00  0.00    -0.320 NA
ATOM     24  H   UNL     1       6.427   1.032   5.815  0.00  0.00    +0.119 HD
ATOM     25  H   UNL     1       6.579   2.633   5.935  0.00  0.00    +0.119 HD
ENDBRANCH  22  23
BRANCH  22  26
ATOM     26  C   UNL     1       5.351   2.115   3.627  0.00  0.00    +0.063 C 
BRANCH  26  30
ATOM     27  C   UNL     1       3.427   3.782   4.597  0.00  0.00    +0.004 C 
ATOM     28  C   UNL     1       3.900   4.978   4.995  0.00  0.00    +0.001 C 
ATOM     29  C   UNL     1       5.201   4.618   4.531  0.00  0.00    +0.004 C 
ATOM     30  C   UNL     1       4.744   3.396   4.190  0.00  0.00    -0.045 C 
ENDBRANCH  26  30
ENDBRANCH  22  26
ENDBRANCH  18  22
ENDBRANCH  17  20
ENDBRANCH   1  17
TORSDOF 13
