REMARK  Name = 
REMARK  12 active torsions:
REMARK  status: ('A' for Active; 'I' for Inactive)
REMARK    1  A    between atoms: C_1  and  C_2
REMARK    2  A    between atoms: C_16  and  N_17
REMARK    3  A    between atoms: C_18  and  C_19
REMARK    4  A    between atoms: C_18  and  C_20
REMARK    5  A    between atoms: C_20  and  C_21
REMARK    6  A    between atoms: C_21  and  C_22
REMARK    7  A    between atoms: C_22  and  N_23
REMARK    8  A    between atoms: N_23  and  C_24
REMARK    9  A    between atoms: C_24  and  C_25
REMARK   10  A    between atoms: C_25  and  C_26
REMARK   11  A    between atoms: C_26  and  C_27
REMARK   12  A    between atoms: C_27  and  C_28
REMARK                            x       y       z     vdW  Elec       q    Type
REMARK                         _______ _______ _______ _____ _____    ______ ____
ROOT
ATOM      1  C   UNL     1       1.034  -0.102  -0.057  0.00  0.00    +0.035 C 
ATOM      2  C   UNL     1       2.513  -0.168   0.052  0.00  0.00    -0.023 C 
ATOM      3  C   UNL     1       3.199  -0.824   1.011  0.00  0.00    -0.004 C 
ATOM      4  C   UNL     1       2.651  -1.499   2.235  0.00  0.00    +0.065 C 
ATOM      5  C   UNL     1       2.954  -0.645   3.431  0.00  0.00    -0.026 C 
ATOM      6  C   UNL     1       3.745  -0.996   4.455  0.00  0.00    -0.027 C 
ATOM      7  C   UNL     1       4.277  -0.014   5.399  0.00  0.00    +0.015 C 
ATOM      8  C   UNL     1       5.503  -0.278   6.213  0.00  0.00    +0.012 C 
ATOM      9  C   UNL     1       5.598   0.666   5.033  0.00  0.00    +0.001 C 
ATOM     10  C   UNL     1       6.552   0.224   3.933  0.00  0.00    +0.040 C 
ATOM     11  C   UNL     1       6.862   1.190   2.801  0.00  0.00    -0.029 C 
ATOM     12  C   UNL     1       7.581   2.305   3.047  0.00  0.00    +0.014 C 
ATOM     13  C   UNL     1       6.445   0.816   1.437  0.00  0.00    +0.062 C 
ATOM     14  C   UNL     1       7.240   0.978   0.371  0.00  0.00    +0.038 C 
ATOM     15  N   UNL     1       5.117   0.518   1.302  0.00  0.00    -0.229 NA
ATOM     16  C   UNL     1       4.683  -0.661   0.967  0.00  0.00    +0.156 C 
ENDROOT
BRANCH  16  17
ATOM     17  N   UNL     1       5.453  -1.771   0.698  0.00  0.00    -0.237 NA
ATOM     18  C   UNL     1       5.141  -2.770  -0.070  0.00  0.00    +0.018 C 
ATOM     19  C   UNL     1       3.871  -3.012  -0.860  0.00  0.00    +0.061 C 
BRANCH  18  20
ATOM     20  C   UNL     1       6.170  -3.885  -0.234  0.00  0.00    +0.052 C 
BRANCH  20  21
ATOM     21  C   UNL     1       6.949  -3.677  -1.534  0.00  0.00    +0.021 C 
BRANCH  21  22
ATOM     22  C   UNL     1       7.912  -2.487  -1.468  0.00  0.00    +0.081 C 
BRANCH  22  23
ATOM     23  N   UNL     1       8.946  -2.591  -0.437  0.00  0.00    -0.316 NA
ATOM     24  H   UNL     1       8.503  -2.533   0.482  0.00  0.00    +0.122 HD
BRANCH  23  25
ATOM     25  C   UNL     1       9.761  -3.802  -0.518  0.00  0.00    +0.081 C 
BRANCH  25  26
ATOM     26  C   UNL     1      10.568  -3.861  -1.815  0.00  0.00    +0.015 C 
BRANCH  26  27
ATOM     27  C   UNL     1      11.332  -5.174  -1.926  0.00  0.00    +0.005 C 
BRANCH  27  28
ATOM     28  C   UNL     1      12.164  -5.208  -3.207  0.00  0.00    +0.026 C 
BRANCH  28  29
ATOM     29  C   UNL     1      12.913  -6.503  -3.306  0.00  0.00    -0.034 C 
ATOM     30  C   UNL     1      12.756  -7.387  -4.297  0.00  0.00    +0.004 C 
ENDBRANCH  28  29
ENDBRANCH  27  28
ENDBRANCH  26  27
ENDBRANCH  25  26
ENDBRANCH  23  25
ENDBRANCH  22  23
ENDBRANCH  21  22
ENDBRANCH  20  21
ENDBRANCH  18  20
ENDBRANCH  16  17
TORSDOF 10
