REMARK  Name = 
REMARK  12 active torsions:
REMARK  status: ('A' for Active; 'I' for Inactive)
REMARK    1  A    between atoms: C_5  and  C_10
REMARK    2  A    between atoms: C_11  and  C_12
REMARK    3  A    between atoms: C_12  and  C_13
REMARK    4  A    between atoms: C_12  and  C_21
REMARK    5  A    between atoms: C_13  and  C_14
REMARK    6  A    between atoms: C_14  and  C_15
REMARK    7  A    between atoms: C_16  and  C_17
REMARK    8  A    between atoms: C_18  and  N_19
REMARK    9  A    between atoms: C_21  and  C_22
REMARK   10  A    between atoms: C_22  and  C_23
REMARK   11  A    between atoms: C_22  and  N_24
REMARK   12  A    between atoms: N_24  and  C_25
REMARK                            x       y       z     vdW  Elec       q    Type
REMARK                         _______ _______ _______ _____ _____    ______ ____
ROOT
ATOM      1  C   UNL     1       8.596   4.857  -4.146  0.00  0.00    +0.013 C 
ENDROOT
BRANCH   1   3
ATOM      2  C   UNL     1       7.441   2.655  -3.864  0.00  0.00    -0.001 C 
ATOM      3  C   UNL     1       8.128   3.667  -3.311  0.00  0.00    -0.023 C 
BRANCH   2   8
ATOM      4  C   UNL     1       4.371  -2.018  -1.379  0.00  0.00    +0.004 C 
ATOM      5  C   UNL     1       5.321  -1.103  -0.506  0.00  0.00    +0.001 C 
ATOM      6  C   UNL     1       5.850   0.319  -0.909  0.00  0.00    +0.005 C 
ATOM      7  C   UNL     1       6.628   1.472  -1.666  0.00  0.00    +0.035 C 
ATOM      8  C   UNL     1       6.727   1.538  -3.228  0.00  0.00    -0.048 C 
ATOM      9  C   UNL     1       6.141   0.671  -4.096  0.00  0.00    +0.003 C 
ATOM     10  C   UNL     1       5.193  -0.289  -3.641  0.00  0.00    -0.004 C 
ATOM     11  C   UNL     1       5.131  -1.591  -3.907  0.00  0.00    -0.027 C 
ATOM     12  C   UNL     1       4.534  -2.491  -2.867  0.00  0.00    +0.027 C 
ENDBRANCH   2   8
ENDBRANCH   1   3
BRANCH   1  13
ATOM     13  C   UNL     1       7.926   6.122  -3.541  0.00  0.00    +0.012 C 
BRANCH  13  14
ATOM     14  C   UNL     1       8.138   7.422  -4.327  0.00  0.00    +0.028 C 
BRANCH  14  15
ATOM     15  C   UNL     1       7.433   8.581  -3.675  0.00  0.00    -0.027 C 
ATOM     16  C   UNL     1       8.068   9.638  -3.172  0.00  0.00    -0.003 C 
BRANCH  16  17
ATOM     17  C   UNL     1       7.421  10.774  -2.556  0.00  0.00    +0.019 C 
ATOM     18  C   UNL     1       8.079  11.819  -2.059  0.00  0.00    +0.110 C 
BRANCH  18  19
ATOM     19  N   UNL     1       7.435  12.868  -1.490  0.00  0.00    -0.271 NA
ATOM     20  C   UNL     1       8.161  13.848  -1.063  0.00  0.00    +0.140 C 
ENDBRANCH  18  19
ENDBRANCH  16  17
ENDBRANCH  14  15
ENDBRANCH  13  14
ENDBRANCH   1  13
BRANCH   1  21
ATOM     21  C   UNL     1      10.137   4.987  -4.220  0.00  0.00    +0.026 C 
BRANCH  21  22
ATOM     22  C   UNL     1      10.928   3.807  -4.846  0.00  0.00    +0.051 C 
ATOM     23  C   UNL     1      10.461   3.490  -6.273  0.00  0.00    +0.024 C 
BRANCH  22  24
ATOM     24  N   UNL     1      12.353   4.204  -4.803  0.00  0.00    -0.316 NA
ATOM     25  C   UNL     1      13.275   3.186  -5.289  0.00  0.00    +0.101 C 
ATOM     26  H   UNL     1      12.597   4.416  -3.835  0.00  0.00    +0.122 HD
ENDBRANCH  22  24
ENDBRANCH  21  22
ENDBRANCH   1  21
TORSDOF 10
