REMARK  Name = 
REMARK  8 active torsions:
REMARK  status: ('A' for Active; 'I' for Inactive)
REMARK    1  A    between atoms: C_2  and  C_3
REMARK    2  A    between atoms: C_3  and  N_4
REMARK    3  A    between atoms: C_3  and  N_5
REMARK    4  A    between atoms: C_9  and  C_10
REMARK    5  A    between atoms: C_13  and  C_14
REMARK    6  A    between atoms: N_15  and  C_16
REMARK    7  A    between atoms: C_17  and  C_18
REMARK    8  A    between atoms: C_19  and  C_20
REMARK                            x       y       z     vdW  Elec       q    Type
REMARK                         _______ _______ _______ _____ _____    ______ ____
ROOT
ATOM      1  N   UNL     1       4.566  -0.448   1.050  0.00  0.00    -0.251 NA
ATOM      2  C   UNL     1       5.428  -0.490   2.027  0.00  0.00    +0.096 C 
ATOM      3  C   UNL     1       5.050  -0.742   3.492  0.00  0.00    +0.072 C 
ATOM      4  C   UNL     1       5.590   0.319   4.449  0.00  0.00    +0.015 C 
ATOM      5  C   UNL     1       5.758   1.749   3.853  0.00  0.00    +0.019 C 
ATOM      6  C   UNL     1       4.565   2.176   2.959  0.00  0.00    +0.012 C 
ATOM      7  N   UNL     1       6.765  -0.204   1.778  0.00  0.00    -0.309 N 
ATOM      8  C   UNL     1       7.474   0.915   2.233  0.00  0.00    +0.078 C 
ATOM      9  C   UNL     1       7.092   1.872   3.104  0.00  0.00    -0.013 C 
ATOM     10  H   UNL     1       7.367  -1.004   1.587  0.00  0.00    +0.153 HD
ENDROOT
BRANCH   9  11
ATOM     11  C   UNL     1       8.019   3.079   3.414  0.00  0.00    +0.115 C 
ATOM     12  N   UNL     1       7.767   4.070   4.238  0.00  0.00    -0.263 NA
BRANCH  12  13
ATOM     13  C   UNL     1       8.715   5.102   4.480  0.00  0.00    +0.110 C 
ATOM     14  C   UNL     1       8.493   6.159   5.335  0.00  0.00    +0.020 C 
BRANCH  14  15
ATOM     15  C   UNL     1       9.361   7.357   5.786  0.00  0.00    +0.005 C 
ATOM     16  C   UNL     1       8.999   8.360   6.669  0.00  0.00    +0.050 C 
BRANCH  16  17
ATOM     17  C   UNL     1       9.597   9.828   6.969  0.00  0.00    +0.174 A 
ATOM     18  C   UNL     1      10.770  10.554   6.947  0.00  0.00    +0.168 A 
ATOM     19  N   UNL     1       9.967  11.564   7.276  0.00  0.00    -0.225 N 
ATOM     20  O   UNL     1       9.218  10.586   7.908  0.00  0.00    -0.379 OA
ATOM     21  H   UNL     1       9.311  11.936   6.573  0.00  0.00    +0.207 HD
ENDBRANCH  16  17
ENDBRANCH  14  15
ENDBRANCH  12  13
ENDBRANCH   9  11
BRANCH   1  22
ATOM     22  C   UNL     1       3.135  -0.431   1.333  0.00  0.00    +0.194 C 
BRANCH  22  23
ATOM     23  N   UNL     1       2.626  -1.775   1.455  0.00  0.00    -0.306 NA
ATOM     24  H   UNL     1       2.800  -2.220   0.561  0.00  0.00    +0.120 HD
ATOM     25  H   UNL     1       1.621  -1.726   1.586  0.00  0.00    +0.120 HD
ENDBRANCH  22  23
BRANCH  22  27
ATOM     26  C   UNL     1       1.682   1.445   0.469  0.00  0.00    +0.007 C 
ATOM     27  C   UNL     1       2.386   0.318   0.256  0.00  0.00    +0.007 C 
ENDBRANCH  22  27
ENDBRANCH   1  22
TORSDOF 7
