REMARK  Name = 
REMARK  4 active torsions:
REMARK  status: ('A' for Active; 'I' for Inactive)
REMARK    1  A    between atoms: C_1  and  C_2
REMARK    2  A    between atoms: N_4  and  C_5
REMARK    3  A    between atoms: C_5  and  C_7
REMARK    4  A    between atoms: C_7  and  C_8
REMARK                            x       y       z     vdW  Elec       q    Type
REMARK                         _______ _______ _______ _____ _____    ______ ____
ROOT
ATOM      1  C   UNL     1       0.999   0.150  -0.308  0.00  0.00    +0.109 C 
ATOM      2  C   UNL     1       2.459   0.009   0.041  0.00  0.00    +0.214 C 
ATOM      3  O   UNL     1       2.802  -0.456   1.122  0.00  0.00    -0.276 OA
ATOM      4  N   UNL     1       3.287   0.452  -0.983  0.00  0.00    -0.290 N 
ATOM      5  H   UNL     1       2.815   0.793  -1.812  0.00  0.00    +0.154 HD
ENDROOT
BRANCH   4   6
ATOM      6  C   UNL     1       4.671   0.490  -1.023  0.00  0.00    +0.003 C 
ATOM      7  C   UNL     1       5.462   0.067  -0.027  0.00  0.00    +0.028 C 
BRANCH   6   8
ATOM      8  C   UNL     1       5.284   1.020  -2.306  0.00  0.00    +0.047 C 
ATOM      9  C   UNL     1       4.957   2.482  -2.579  0.00  0.00    +0.010 C 
ENDBRANCH   6   8
ENDBRANCH   4   6
TORSDOF 2
