REMARK  Name = 
REMARK  7 active torsions:
REMARK  status: ('A' for Active; 'I' for Inactive)
REMARK    1  A    between atoms: C_1  and  C_2
REMARK    2  A    between atoms: C_2  and  C_3
REMARK    3  A    between atoms: C_3  and  C_4
REMARK    4  A    between atoms: C_10  and  N_11
REMARK    5  A    between atoms: N_11  and  C_12
REMARK    6  A    between atoms: C_18  and  C_19
REMARK    7  A    between atoms: C_22  and  C_23
REMARK                            x       y       z     vdW  Elec       q    Type
REMARK                         _______ _______ _______ _____ _____    ______ ____
ROOT
ATOM      1  C   UNL     1       7.707  -0.195   4.668  0.00  0.00    -0.027 C 
ATOM      2  C   UNL     1       7.290  -0.801   3.532  0.00  0.00    -0.070 C 
ATOM      3  C   UNL     1       5.863  -0.677   2.971  0.00  0.00    +0.031 C 
ATOM      4  C   UNL     1       5.836  -0.285   1.484  0.00  0.00    +0.009 C 
ATOM      5  C   UNL     1       4.793  -1.021   0.623  0.00  0.00    +0.033 C 
ATOM      6  C   UNL     1       5.066  -1.123  -0.886  0.00  0.00    -0.039 C 
ATOM      7  C   UNL     1       4.014  -1.183  -1.734  0.00  0.00    +0.067 C 
ATOM      8  C   UNL     1       8.329  -1.660   2.790  0.00  0.00    +0.057 C 
ATOM      9  C   UNL     1       7.740  -2.614   1.771  0.00  0.00    -0.022 C 
ATOM     10  C   UNL     1       8.250  -2.617   0.538  0.00  0.00    +0.004 C 
ATOM     11  C   UNL     1       7.529  -2.856  -0.717  0.00  0.00    -0.020 C 
ATOM     12  C   UNL     1       6.390  -2.866  -1.471  0.00  0.00    -0.039 C 
ATOM     13  C   UNL     1       6.537  -3.418  -3.067  0.00  0.00    +0.037 C 
ATOM     14  C   UNL     1       6.040  -2.593  -4.251  0.00  0.00    +0.016 C 
ATOM     15  C   UNL     1       7.989  -3.045  -3.005  0.00  0.00    -0.014 C 
ATOM     16  C   UNL     1       7.986  -2.214  -1.917  0.00  0.00    -0.027 C 
ATOM     17  C   UNL     1       6.509  -1.173  -1.544  0.00  0.00    +0.069 C 
ENDROOT
BRANCH   7  18
ATOM     18  N   UNL     1       2.663  -1.348  -1.499  0.00  0.00    -0.353 N 
ATOM     19  C   UNL     1       1.722  -1.768  -2.536  0.00  0.00    +0.125 C 
ATOM     20  H   UNL     1       2.446  -1.718  -0.576  0.00  0.00    +0.145 HD
ENDBRANCH   7  18
BRANCH  17  21
ATOM     21  C   UNL     1       7.334   0.051  -1.137  0.00  0.00    +0.233 C 
ATOM     22  F   UNL     1       8.015   0.504  -2.234  0.00  0.00    -0.247 F 
ENDBRANCH  17  21
BRANCH   1  23
ATOM     23  C   UNL     1       6.904   0.586   5.674  0.00  0.00    +0.027 C 
BRANCH  23  25
ATOM     24  C   UNL     1       6.537   2.767   6.835  0.00  0.00    +0.004 C 
ATOM     25  C   UNL     1       7.338   2.048   5.763  0.00  0.00    +0.001 C 
ENDBRANCH  23  25
ENDBRANCH   1  23
TORSDOF 4
