REMARK  Name = 
REMARK  1 active torsions:
REMARK  status: ('A' for Active; 'I' for Inactive)
REMARK    1  A    between atoms: C_7  and  C_8
REMARK                            x       y       z     vdW  Elec       q    Type
REMARK                         _______ _______ _______ _____ _____    ______ ____
ROOT
ATOM      1  C   UNL     1      -0.326  -0.877  -0.276  0.00  0.00    +0.138 C 
ATOM      2  C   UNL     1       0.812  -1.189   0.652  0.00  0.00    +0.031 C 
ATOM      3  C   UNL     1       1.872  -0.210   0.055  0.00  0.00    +0.023 C 
ATOM      4  C   UNL     1       1.045   0.933  -0.599  0.00  0.00    +0.126 C 
ATOM      5  N   UNL     1      -0.260   0.568  -0.117  0.00  0.00    -0.247 N 
ATOM      6  N   UNL     1      -1.496   0.744  -0.580  0.00  0.00    -0.191 NA
ATOM      7  C   UNL     1      -1.759  -0.474  -0.189  0.00  0.00    +0.055 C 
ATOM      8  C   UNL     1      -3.022  -1.221  -0.222  0.00  0.00    +0.064 C 
ENDROOT
TORSDOF 0
