REMARK  Name = 
REMARK  7 active torsions:
REMARK  status: ('A' for Active; 'I' for Inactive)
REMARK    1  A    between atoms: C_5  and  C_13
REMARK    2  A    between atoms: C_14  and  N_15
REMARK    3  A    between atoms: N_15  and  C_16
REMARK    4  A    between atoms: C_17  and  C_18
REMARK    5  A    between atoms: C_20  and  O_21
REMARK    6  A    between atoms: O_21  and  C_22
REMARK    7  A    between atoms: C_22  and  C_23
REMARK                            x       y       z     vdW  Elec       q    Type
REMARK                         _______ _______ _______ _____ _____    ______ ____
ROOT
ATOM      1  C   UNL     1      -0.029   1.610  -0.309  0.00  0.00    +0.019 C 
ATOM      2  C   UNL     1       1.217   0.780   0.035  0.00  0.00    +0.005 C 
ATOM      3  C   UNL     1       0.915  -0.576   0.682  0.00  0.00    +0.027 C 
ATOM      4  C   UNL     1      -0.529  -0.970   0.696  0.00  0.00    -0.023 C 
ATOM      5  C   UNL     1      -1.496  -0.390  -0.039  0.00  0.00    -0.037 C 
ATOM      6  C   UNL     1      -1.079   0.707  -1.013  0.00  0.00    +0.068 C 
ATOM      7  C   UNL     1      -0.594   0.248  -2.477  0.00  0.00    +0.199 C 
ATOM      8  N   UNL     1      -1.426  -0.847  -3.056  0.00  0.00    -0.205 NA
ATOM      9  C   UNL     1      -2.521  -0.453  -2.941  0.00  0.00    +0.093 C 
ATOM     10  N   UNL     1      -3.185   0.416  -2.518  0.00  0.00    -0.205 NA
ATOM     11  C   UNL     1      -2.215   1.393  -1.939  0.00  0.00    +0.199 C 
ATOM     12  N   UNL     1      -1.119   1.595  -2.966  0.00  0.00    -0.271 NA
ATOM     13  H   UNL     1      -0.514   2.386  -2.773  0.00  0.00    +0.126 HD
ENDROOT
BRANCH   5  14
ATOM     14  C   UNL     1      -2.890  -0.728   0.194  0.00  0.00    +0.019 C 
ATOM     15  C   UNL     1      -3.389  -1.971   0.091  0.00  0.00    +0.072 C 
BRANCH  15  16
ATOM     16  N   UNL     1      -4.700  -2.349   0.256  0.00  0.00    -0.326 N 
ATOM     17  H   UNL     1      -5.353  -1.591   0.432  0.00  0.00    +0.151 HD
BRANCH  16  18
ATOM     18  C   UNL     1      -5.260  -3.593   0.085  0.00  0.00    +0.072 C 
ATOM     19  C   UNL     1      -6.568  -3.883   0.177  0.00  0.00    +0.021 C 
BRANCH  19  20
ATOM     20  C   UNL     1      -7.115  -5.190  -0.054  0.00  0.00    -0.015 C 
ATOM     21  C   UNL     1      -8.351  -5.322  -0.543  0.00  0.00    +0.015 C 
ATOM     22  C   UNL     1      -8.111  -5.912   0.737  0.00  0.00    +0.171 C 
BRANCH  22  23
ATOM     23  O   UNL     1      -8.145  -7.355   0.872  0.00  0.00    -0.368 OA
BRANCH  23  24
ATOM     24  C   UNL     1      -7.941  -7.804   2.208  0.00  0.00    +0.157 C 
ATOM     25  C   UNL     1      -8.125  -9.310   2.253  0.00  0.00    +0.034 C 
ENDBRANCH  23  24
ENDBRANCH  22  23
ENDBRANCH  19  20
ENDBRANCH  16  18
ENDBRANCH  15  16
ENDBRANCH   5  14
TORSDOF 6
