REMARK  Name = 
REMARK  11 active torsions:
REMARK  status: ('A' for Active; 'I' for Inactive)
REMARK    1  A    between atoms: C_1  and  C_2
REMARK    2  A    between atoms: C_2  and  C_3
REMARK    3  A    between atoms: C_3  and  C_4
REMARK    4  A    between atoms: C_4  and  O_5
REMARK    5  A    between atoms: C_4  and  C_6
REMARK    6  A    between atoms: C_4  and  C_7
REMARK    7  A    between atoms: C_7  and  N_8
REMARK    8  A    between atoms: C_10  and  N_11
REMARK    9  A    between atoms: N_11  and  C_12
REMARK   10  A    between atoms: C_14  and  C_15
REMARK   11  A    between atoms: C_18  and  C_19
REMARK                            x       y       z     vdW  Elec       q    Type
REMARK                         _______ _______ _______ _____ _____    ______ ____
ROOT
ATOM      1  N   UNL     1       6.577  -1.881  -2.265  0.00  0.00    -0.238 NA
ATOM      2  C   UNL     1       7.109  -2.440  -3.148  0.00  0.00    -0.003 C 
ATOM      3  C   UNL     1       7.749  -3.064  -4.096  0.00  0.00    +0.144 C 
ENDROOT
BRANCH   3   4
ATOM      4  N   UNL     1       8.869  -3.814  -3.849  0.00  0.00    -0.319 N 
ATOM      5  H   UNL     1       9.173  -3.848  -2.878  0.00  0.00    +0.152 HD
BRANCH   4   6
ATOM      6  C   UNL     1       9.620  -4.519  -4.748  0.00  0.00    +0.077 C 
ATOM      7  C   UNL     1      10.708  -5.232  -4.438  0.00  0.00    -0.019 C 
ATOM      8  C   UNL     1      11.647  -6.096  -5.260  0.00  0.00    +0.084 C 
ATOM      9  C   UNL     1      12.346  -6.300  -3.930  0.00  0.00    -0.010 C 
ATOM     10  C   UNL     1      11.459  -5.539  -3.241  0.00  0.00    -0.048 C 
ATOM     11  C   UNL     1      11.328  -5.149  -1.789  0.00  0.00    +0.044 C 
BRANCH   8  12
ATOM     12  C   UNL     1      12.535  -5.303  -6.260  0.00  0.00    +0.086 C 
ATOM     13  N   UNL     1      13.374  -5.869  -7.069  0.00  0.00    -0.311 NA
ATOM     14  H   UNL     1      13.377  -6.886  -6.932  0.00  0.00    +0.186 HD
ENDBRANCH   8  12
ENDBRANCH   4   6
ENDBRANCH   3   4
BRANCH   1  15
ATOM     15  C   UNL     1       5.096  -1.789  -2.318  0.00  0.00    +0.186 C 
BRANCH  15  16
ATOM     16  C   UNL     1       4.447  -2.451  -1.065  0.00  0.00    +0.083 C 
ATOM     17  C   UNL     1       4.872  -3.922  -0.968  0.00  0.00    +0.043 C 
BRANCH  16  18
ATOM     18  O   UNL     1       4.897  -1.748   0.101  0.00  0.00    -0.387 OA
ATOM     19  H   UNL     1       4.685  -2.282   0.883  0.00  0.00    +0.210 HD
ENDBRANCH  16  18
BRANCH  16  20
ATOM     20  C   UNL     1       2.902  -2.310  -1.132  0.00  0.00    +0.036 C 
BRANCH  20  22
ATOM     21  C   UNL     1       0.648  -2.730  -0.029  0.00  0.00    +0.004 C 
ATOM     22  C   UNL     1       2.156  -2.896   0.081  0.00  0.00    -0.001 C 
ENDBRANCH  20  22
ENDBRANCH  16  20
ENDBRANCH  15  16
ENDBRANCH   1  15
TORSDOF 8
