REMARK  Name = 
REMARK  9 active torsions:
REMARK  status: ('A' for Active; 'I' for Inactive)
REMARK    1  A    between atoms: C_5  and  C_6
REMARK    2  A    between atoms: C_7  and  C_8
REMARK    3  A    between atoms: C_7  and  C_14
REMARK    4  A    between atoms: C_17  and  N_18
REMARK    5  A    between atoms: N_18  and  N_19
REMARK    6  A    between atoms: N_19  and  C_20
REMARK    7  A    between atoms: N_19  and  C_21
REMARK    8  A    between atoms: C_21  and  C_22
REMARK    9  A    between atoms: C_22  and  C_23
REMARK                            x       y       z     vdW  Elec       q    Type
REMARK                         _______ _______ _______ _____ _____    ______ ____
ROOT
ATOM      1  C   UNL     1      -3.008   1.478   1.168  0.00  0.00    -0.006 C 
ATOM      2  C   UNL     1      -4.355   1.464   1.325  0.00  0.00    -0.021 C 
ENDROOT
BRANCH   2   3
ATOM      3  C   UNL     1      -5.160   0.886   0.228  0.00  0.00    -0.014 C 
ATOM      4  C   UNL     1      -5.408  -0.494   0.184  0.00  0.00    -0.013 C 
ATOM      5  C   UNL     1      -6.109  -1.076  -0.897  0.00  0.00    +0.063 C 
ATOM      6  C   UNL     1      -6.558  -0.234  -1.935  0.00  0.00    +0.028 C 
ATOM      7  C   UNL     1      -6.306   1.136  -1.894  0.00  0.00    -0.123 C 
ATOM      8  C   UNL     1      -5.615   1.695  -0.820  0.00  0.00    +0.059 C 
ENDBRANCH   2   3
BRANCH   1  13
ATOM      9  C   UNL     1      -0.824   1.419  -0.079  0.00  0.00    -0.032 C 
ATOM     10  C   UNL     1       0.065   2.116  -0.792  0.00  0.00    +0.005 C 
ATOM     11  C   UNL     1      -0.912   2.450  -1.754  0.00  0.00    +0.005 C 
ATOM     12  C   UNL     1      -1.855   1.781  -1.084  0.00  0.00    -0.032 C 
ATOM     13  C   UNL     1      -2.204   0.938   0.061  0.00  0.00    +0.073 C 
ENDBRANCH   1  13
BRANCH   2  14
ATOM     14  C   UNL     1      -4.910   2.013   2.562  0.00  0.00    +0.009 C 
ATOM     15  C   UNL     1      -6.170   2.183   2.916  0.00  0.00    -0.049 C 
ATOM     16  C   UNL     1      -6.953   2.769   3.937  0.00  0.00    +0.057 C 
ATOM     17  C   UNL     1      -7.557   2.115   2.651  0.00  0.00    +0.100 C 
BRANCH  17  18
ATOM     18  N   UNL     1      -8.335   0.880   2.836  0.00  0.00    -0.247 NA
ATOM     19  H   UNL     1      -8.089   0.402   3.707  0.00  0.00    +0.141 HD
BRANCH  18  20
ATOM     20  N   UNL     1      -9.785   1.103   2.768  0.00  0.00    -0.245 NA
ATOM     21  C   UNL     1     -10.257   2.013   3.818  0.00  0.00    +0.124 C 
BRANCH  20  22
ATOM     22  C   UNL     1     -10.219   1.564   1.433  0.00  0.00    +0.104 C 
BRANCH  22  23
ATOM     23  C   UNL     1      -9.814   0.614   0.295  0.00  0.00    +0.046 C 
BRANCH  23  24
ATOM     24  C   UNL     1     -10.085   1.110  -1.097  0.00  0.00    +0.140 C 
ATOM     25  C   UNL     1      -9.548   2.391  -1.516  0.00  0.00    -0.085 C 
ATOM     26  C   UNL     1     -10.737   2.362  -1.385  0.00  0.00    -0.085 C 
ENDBRANCH  23  24
ENDBRANCH  22  23
ENDBRANCH  20  22
ENDBRANCH  18  20
ENDBRANCH  17  18
ENDBRANCH   2  14
TORSDOF 8
