REMARK  Name = 
REMARK  21 active torsions:
REMARK  status: ('A' for Active; 'I' for Inactive)
REMARK    1  A    between atoms: C_1  and  C_2
REMARK    2  A    between atoms: C_3  and  C_4
REMARK    3  A    between atoms: C_4  and  C_6
REMARK    4  A    between atoms: C_6  and  N_7
REMARK    5  A    between atoms: N_7  and  C_8
REMARK    6  A    between atoms: C_8  and  C_9
REMARK    7  A    between atoms: C_9  and  N_10
REMARK    8  A    between atoms: C_12  and  C_13
REMARK    9  A    between atoms: C_14  and  C_15
REMARK   10  A    between atoms: C_15  and  N_16
REMARK   11  A    between atoms: N_16  and  C_17
REMARK   12  A    between atoms: C_18  and  C_19
REMARK   13  A    between atoms: C_19  and  C_21
REMARK   14  A    between atoms: C_21  and  C_22
REMARK   15  A    between atoms: C_21  and  C_23
REMARK   16  A    between atoms: C_23  and  C_24
REMARK   17  A    between atoms: C_24  and  C_25
REMARK   18  A    between atoms: C_25  and  N_26
REMARK   19  A    between atoms: N_26  and  N_27
REMARK   20  A    between atoms: N_27  and  C_28
REMARK   21  A    between atoms: C_28  and  N_29
REMARK                            x       y       z     vdW  Elec       q    Type
REMARK                         _______ _______ _______ _____ _____    ______ ____
ROOT
ATOM      1  N   UNL     1      11.872   0.915  -4.387  0.00  0.00    -0.347 N 
ATOM      2  H   UNL     1      10.943   1.329  -4.330  0.00  0.00    +0.146 HD
ENDROOT
BRANCH   1   3
ATOM      3  C   UNL     1      12.908   1.670  -3.903  0.00  0.00    +0.067 C 
ATOM      4  C   UNL     1      12.829   2.917  -3.430  0.00  0.00    +0.018 C 
BRANCH   4   5
ATOM      5  C   UNL     1      13.971   3.654  -2.920  0.00  0.00    -0.050 C 
ATOM      6  C   UNL     1      14.638   3.217  -1.839  0.00  0.00    +0.012 C 
BRANCH   5   7
ATOM      7  C   UNL     1      14.339   4.921  -3.684  0.00  0.00    +0.015 C 
ATOM      8  C   UNL     1      14.202   6.164  -2.797  0.00  0.00    +0.012 C 
BRANCH   7   9
ATOM      9  C   UNL     1      15.759   4.865  -4.291  0.00  0.00    +0.009 C 
BRANCH   9  10
ATOM     10  C   UNL     1      15.946   3.729  -5.304  0.00  0.00    +0.017 C 
BRANCH  10  11
ATOM     11  C   UNL     1      17.366   3.730  -5.876  0.00  0.00    +0.098 C 
BRANCH  11  12
ATOM     12  N   UNL     1      17.502   2.625  -6.836  0.00  0.00    -0.255 NA
ATOM     13  H   UNL     1      16.809   2.767  -7.578  0.00  0.00    +0.141 HD
BRANCH  12  14
ATOM     14  N   UNL     1      18.849   2.645  -7.383  0.00  0.00    -0.243 NA
ATOM     15  H   UNL     1      19.549   2.500  -6.650  0.00  0.00    +0.142 HD
BRANCH  14  16
ATOM     16  C   UNL     1      19.015   1.533  -8.300  0.00  0.00    +0.178 C 
BRANCH  16  17
ATOM     17  N   UNL     1      20.380   1.633  -8.750  0.00  0.00    -0.317 NA
ATOM     18  H   UNL     1      20.495   2.566  -9.141  0.00  0.00    +0.119 HD
ATOM     19  H   UNL     1      20.519   0.982  -9.519  0.00  0.00    +0.119 HD
ENDBRANCH  16  17
ENDBRANCH  14  16
ENDBRANCH  12  14
ENDBRANCH  11  12
ENDBRANCH  10  11
ENDBRANCH   9  10
ENDBRANCH   7   9
ENDBRANCH   5   7
ENDBRANCH   4   5
ENDBRANCH   1   3
BRANCH   1  20
ATOM     20  C   UNL     1      11.946  -0.453  -4.876  0.00  0.00    +0.131 C 
BRANCH  20  25
ATOM     21  N   UNL     1      11.911  -2.786  -4.016  0.00  0.00    -0.244 N 
ATOM     22  N   UNL     1      11.510  -2.879  -2.713  0.00  0.00    -0.191 NA
ATOM     23  C   UNL     1      11.612  -1.592  -2.579  0.00  0.00    +0.057 C 
ATOM     24  C   UNL     1      11.213  -0.675  -1.503  0.00  0.00    +0.064 C 
ATOM     25  C   UNL     1      12.429  -1.436  -3.828  0.00  0.00    +0.155 C 
BRANCH  21  26
ATOM     26  C   UNL     1      12.913  -3.701  -4.564  0.00  0.00    +0.141 C 
BRANCH  26  27
ATOM     27  C   UNL     1      12.366  -5.134  -4.741  0.00  0.00    +0.102 C 
BRANCH  27  28
ATOM     28  N   UNL     1      13.323  -5.949  -5.514  0.00  0.00    -0.308 NA
ATOM     29  H   UNL     1      13.425  -5.536  -6.444  0.00  0.00    +0.122 HD
BRANCH  28  30
ATOM     30  C   UNL     1      12.834  -7.327  -5.685  0.00  0.00    +0.160 C 
BRANCH  30  31
ATOM     31  C   UNL     1      13.858  -8.142  -6.479  0.00  0.00    +0.169 C 
ATOM     32  O   UNL     1      13.573  -8.668  -7.555  0.00  0.00    -0.291 OA
BRANCH  31  35
ATOM     33  C   UNL     1      17.553  -9.163  -5.914  0.00  0.00    +0.035 C 
ATOM     34  C   UNL     1      16.179  -9.009  -6.479  0.00  0.00    -0.027 C 
ATOM     35  C   UNL     1      15.221  -8.285  -5.880  0.00  0.00    +0.043 C 
ENDBRANCH  31  35
ENDBRANCH  30  31
ENDBRANCH  28  30
ENDBRANCH  27  28
ENDBRANCH  26  27
ENDBRANCH  21  26
ENDBRANCH  20  25
ENDBRANCH   1  20
TORSDOF 18
