REMARK  Name = 
REMARK  6 active torsions:
REMARK  status: ('A' for Active; 'I' for Inactive)
REMARK    1  A    between atoms: C_11  and  C_12
REMARK    2  A    between atoms: C_12  and  N_13
REMARK    3  A    between atoms: N_13  and  C_14
REMARK    4  A    between atoms: C_15  and  C_16
REMARK    5  A    between atoms: C_17  and  N_18
REMARK    6  A    between atoms: N_18  and  C_19
REMARK                            x       y       z     vdW  Elec       q    Type
REMARK                         _______ _______ _______ _____ _____    ______ ____
ROOT
ATOM      1  C   UNL     1      -0.470  -1.592   0.082  0.00  0.00    +0.005 A 
ATOM      2  C   UNL     1      -1.310  -0.757   0.804  0.00  0.00    -0.033 A 
ATOM      3  C   UNL     1      -0.599   0.307   1.460  0.00  0.00    +0.009 A 
ATOM      4  C   UNL     1      -0.588   1.000   0.246  0.00  0.00    -0.033 A 
ATOM      5  C   UNL     1       0.416   0.473  -0.606  0.00  0.00    +0.005 A 
ATOM      6  C   UNL     1       0.477  -0.918  -0.673  0.00  0.00    +0.001 A 
ATOM      7  C   UNL     1      -2.114   0.431   0.172  0.00  0.00    +0.043 C 
ATOM      8  C   UNL     1      -2.661   0.547  -1.250  0.00  0.00    +0.025 C 
ATOM      9  C   UNL     1      -3.525   1.827  -1.144  0.00  0.00    +0.029 C 
ATOM     10  C   UNL     1      -4.022   1.758   0.267  0.00  0.00    -0.025 C 
ATOM     11  C   UNL     1      -3.265   0.937   1.018  0.00  0.00    -0.042 C 
ENDROOT
BRANCH  11  12
ATOM     12  C   UNL     1      -3.660   0.235   2.293  0.00  0.00    +0.133 C 
BRANCH  12  13
ATOM     13  N   UNL     1      -4.975   0.626   2.745  0.00  0.00    -0.346 N 
ATOM     14  H   UNL     1      -5.014   1.451   3.342  0.00  0.00    +0.146 HD
BRANCH  13  15
ATOM     15  C   UNL     1      -6.138  -0.082   2.591  0.00  0.00    +0.067 C 
ATOM     16  C   UNL     1      -7.317   0.213   3.149  0.00  0.00    +0.016 C 
BRANCH  16  17
ATOM     17  C   UNL     1      -8.520  -0.545   2.912  0.00  0.00    +0.016 C 
ATOM     18  C   UNL     1      -9.707  -0.231   3.453  0.00  0.00    +0.067 C 
BRANCH  18  19
ATOM     19  N   UNL     1     -10.886  -0.886   3.244  0.00  0.00    -0.353 N 
ATOM     20  C   UNL     1     -12.173  -0.533   3.801  0.00  0.00    +0.125 C 
ATOM     21  H   UNL     1     -10.861  -1.699   2.631  0.00  0.00    +0.145 HD
ENDBRANCH  18  19
ENDBRANCH  16  17
ENDBRANCH  13  15
ENDBRANCH  12  13
ENDBRANCH  11  12
TORSDOF 5
