REMARK  Name = 
REMARK  4 active torsions:
REMARK  status: ('A' for Active; 'I' for Inactive)
REMARK    1  A    between atoms: C_5  and  N_10
REMARK    2  A    between atoms: N_10  and  C_11
REMARK    3  A    between atoms: C_11  and  C_12
REMARK    4  A    between atoms: C_12  and  C_13
REMARK                            x       y       z     vdW  Elec       q    Type
REMARK                         _______ _______ _______ _____ _____    ______ ____
ROOT
ATOM      1  C   UNL     1       2.854  -1.297  -0.228  0.00  0.00    +0.010 C 
ATOM      2  C   UNL     1       4.048  -0.592  -0.311  0.00  0.00    +0.019 C 
ATOM      3  C   UNL     1       3.930   0.684  -0.715  0.00  0.00    +0.054 C 
ATOM      4  C   UNL     1       2.648   1.071  -1.030  0.00  0.00    -0.096 C 
ATOM      5  C   UNL     1       1.467   0.205  -0.963  0.00  0.00    +0.078 C 
ATOM      6  C   UNL     1       1.444  -1.141  -0.480  0.00  0.00    +0.015 C 
ATOM      7  C   UNL     1       1.447  -2.455  -0.006  0.00  0.00    +0.038 C 
ATOM      8  C   UNL     1       2.870  -2.642   0.035  0.00  0.00    +0.063 C 
ATOM      9  N   UNL     1       3.872  -3.422   0.198  0.00  0.00    -0.299 NA
ATOM     10  H   UNL     1       3.654  -4.391   0.358  0.00  0.00    +0.187 HD
ENDROOT
BRANCH   5  11
ATOM     11  N   UNL     1       0.338   0.981  -1.538  0.00  0.00    -0.337 N 
ATOM     12  H   UNL     1       0.553   1.855  -2.008  0.00  0.00    +0.147 HD
BRANCH  11  13
ATOM     13  C   UNL     1      -1.135   0.798  -1.100  0.00  0.00    +0.102 C 
BRANCH  13  14
ATOM     14  C   UNL     1      -2.153   1.724  -1.841  0.00  0.00    +0.015 C 
ATOM     15  C   UNL     1      -2.198   1.537  -3.374  0.00  0.00    +0.005 C 
ENDBRANCH  13  14
ENDBRANCH  11  13
ENDBRANCH   5  11
TORSDOF 3
