REMARK  Name = 
REMARK  6 active torsions:
REMARK  status: ('A' for Active; 'I' for Inactive)
REMARK    1  A    between atoms: C_1  and  C_2
REMARK    2  A    between atoms: C_2  and  C_3
REMARK    3  A    between atoms: C_4  and  C_5
REMARK    4  A    between atoms: C_10  and  C_11
REMARK    5  A    between atoms: C_16  and  N_17
REMARK    6  A    between atoms: C_26  and  C_27
REMARK                            x       y       z     vdW  Elec       q    Type
REMARK                         _______ _______ _______ _____ _____    ______ ____
ROOT
ATOM      1  C   UNL     1       6.007   3.644  -3.286  0.00  0.00    +0.007 C 
ATOM      2  C   UNL     1       6.869   4.240  -4.205  0.00  0.00    -0.024 C 
ATOM      3  C   UNL     1       6.364   5.606  -4.639  0.00  0.00    +0.008 C 
ATOM      4  C   UNL     1       7.110   6.712  -4.865  0.00  0.00    +0.001 C 
ATOM      5  C   UNL     1       6.668   7.831  -5.685  0.00  0.00    +0.005 C 
ATOM      6  C   UNL     1       7.319   8.879  -6.243  0.00  0.00    -0.032 C 
ATOM      7  C   UNL     1       6.598   9.570  -7.387  0.00  0.00    +0.045 C 
ATOM      8  C   UNL     1       7.971   3.716  -5.180  0.00  0.00    +0.022 C 
ATOM      9  C   UNL     1       9.175   4.333  -5.424  0.00  0.00    +0.068 C 
ATOM     10  N   UNL     1       9.896   4.826  -6.635  0.00  0.00    -0.345 N 
ATOM     11  C   UNL     1      11.090   5.846  -6.506  0.00  0.00    +0.094 C 
ATOM     12  C   UNL     1      11.916   6.828  -7.746  0.00  0.00    +0.095 C 
ATOM     13  C   UNL     1      11.517   8.291  -8.071  0.00  0.00    -0.007 C 
ATOM     14  C   UNL     1      12.166   9.428  -7.716  0.00  0.00    -0.001 C 
ATOM     15  C   UNL     1      11.371  10.313  -6.822  0.00  0.00    +0.028 C 
ATOM     16  C   UNL     1      11.002   9.757  -5.638  0.00  0.00    +0.066 C 
ATOM     17  N   UNL     1       9.628   9.618  -5.243  0.00  0.00    -0.255 NA
ATOM     18  C   UNL     1       8.769   9.353  -6.215  0.00  0.00    +0.114 C 
ATOM     19  C   UNL     1      10.603   6.838  -5.461  0.00  0.00    +0.051 C 
ATOM     20  C   UNL     1      11.732   7.515  -4.792  0.00  0.00    -0.020 C 
ATOM     21  C   UNL     1      11.978   8.805  -4.944  0.00  0.00    -0.029 C 
ATOM     22  C   UNL     1      13.486   9.061  -4.859  0.00  0.00    +0.045 C 
ATOM     23  H   UNL     1       9.217   5.105  -7.345  0.00  0.00    +0.146 HD
ENDROOT
BRANCH  12  24
ATOM     24  N   UNL     1      12.396   6.279  -9.026  0.00  0.00    -0.323 NA
ATOM     25  H   UNL     1      12.087   6.892  -9.789  0.00  0.00    +0.119 HD
ATOM     26  H   UNL     1      13.409   6.453  -9.055  0.00  0.00    +0.119 HD
ENDBRANCH  12  24
BRANCH   1  28
ATOM     27  C   UNL     1       4.476   2.219  -1.839  0.00  0.00    -0.027 C 
ATOM     28  C   UNL     1       5.686   2.382  -2.496  0.00  0.00    -0.004 C 
BRANCH  27  30
ATOM     29  C   UNL     1       4.356  -0.014  -0.197  0.00  0.00    +0.008 C 
ATOM     30  C   UNL     1       3.760   1.209  -0.903  0.00  0.00    +0.024 C 
ENDBRANCH  27  30
ENDBRANCH   1  28
TORSDOF 3
