REMARK  Name = 
REMARK  2 active torsions:
REMARK  status: ('A' for Active; 'I' for Inactive)
REMARK    1  A    between atoms: C_12  and  C_13
REMARK    2  A    between atoms: C_13  and  C_14
REMARK                            x       y       z     vdW  Elec       q    Type
REMARK                         _______ _______ _______ _____ _____    ______ ____
ROOT
ATOM      1  C   UNL     1      -0.646   1.047  -0.917  0.00  0.00    +0.091 C 
ATOM      2  C   UNL     1      -1.911   0.957  -1.705  0.00  0.00    -0.015 C 
ATOM      3  C   UNL     1      -1.862   0.421  -2.931  0.00  0.00    -0.004 C 
ATOM      4  C   UNL     1      -0.612  -0.087  -3.432  0.00  0.00    +0.000 C 
ATOM      5  C   UNL     1       0.375  -0.403  -2.581  0.00  0.00    -0.053 C 
ATOM      6  C   UNL     1       0.436  -0.083  -1.107  0.00  0.00    +0.029 C 
ATOM      7  C   UNL     1      -0.018  -0.660   0.295  0.00  0.00    +0.093 C 
ATOM      8  C   UNL     1      -0.831   0.602   0.527  0.00  0.00    +0.149 C 
ATOM      9  O   UNL     1      -1.421   1.062   1.485  0.00  0.00    -0.296 OA
ATOM     10  C   UNL     1       0.522  -1.549  -1.819  0.00  0.00    +0.050 C 
ATOM     11  C   UNL     1      -0.526  -2.339  -1.170  0.00  0.00    -0.018 C 
ATOM     12  C   UNL     1      -0.811  -1.904   0.067  0.00  0.00    -0.062 C 
ENDROOT
BRANCH  12  13
ATOM     13  C   UNL     1      -1.713  -2.446   1.126  0.00  0.00    +0.028 C 
ATOM     14  C   UNL     1      -2.499  -3.693   0.727  0.00  0.00    +0.008 C 
ENDBRANCH  12  13
TORSDOF 1
