REMARK  Name = 
REMARK  1 active torsions:
REMARK  status: ('A' for Active; 'I' for Inactive)
REMARK    1  A    between atoms: C_7  and  N_8
REMARK                            x       y       z     vdW  Elec       q    Type
REMARK                         _______ _______ _______ _____ _____    ______ ____
ROOT
ATOM      1  C   UNL     1      -1.382   0.440  -0.280  0.00  0.00    -0.013 A 
ATOM      2  C   UNL     1      -0.546   1.529  -0.386  0.00  0.00    +0.006 A 
ATOM      3  C   UNL     1       0.774   1.251  -0.161  0.00  0.00    +0.000 A 
ATOM      4  C   UNL     1       1.099  -0.065   0.144  0.00  0.00    +0.000 A 
ATOM      5  C   UNL     1       0.071  -1.044   0.306  0.00  0.00    +0.006 A 
ATOM      6  C   UNL     1      -1.284  -0.871   0.123  0.00  0.00    -0.013 A 
ATOM      7  C   UNL     1      -2.628  -0.146  -0.282  0.00  0.00    +0.165 C 
ENDROOT
BRANCH   7   8
ATOM      8  N   UNL     1      -3.492   0.566   0.606  0.00  0.00    -0.287 NA
ATOM      9  C   UNL     1      -4.679   0.811   0.160  0.00  0.00    +0.135 C 
ENDBRANCH   7   8
TORSDOF 1
