REMARK  Name = 
REMARK  1 active torsions:
REMARK  status: ('A' for Active; 'I' for Inactive)
REMARK    1  A    between atoms: C_4  and  C_7
REMARK                            x       y       z     vdW  Elec       q    Type
REMARK                         _______ _______ _______ _____ _____    ______ ____
ROOT
ATOM      1  C   UNL     1      -0.379  -1.240   0.045  0.00  0.00    +0.058 C 
ATOM      2  C   UNL     1       1.011  -0.687  -0.033  0.00  0.00    -0.026 C 
ATOM      3  C   UNL     1       1.012   0.653   0.007  0.00  0.00    -0.016 C 
ATOM      4  C   UNL     1      -0.378   1.209   0.129  0.00  0.00    +0.100 C 
ATOM      5  C   UNL     1      -1.256  -0.013  -0.062  0.00  0.00    -0.059 C 
ATOM      6  C   UNL     1      -2.542  -0.017  -0.439  0.00  0.00    +0.009 C 
ENDROOT
BRANCH   4   7
ATOM      7  C   UNL     1      -0.603   1.808   1.514  0.00  0.00    +0.235 C 
ATOM      8  O   UNL     1       0.265   2.355   2.193  0.00  0.00    -0.300 OA
ENDBRANCH   4   7
TORSDOF 1
