REMARK  Name = 
REMARK  5 active torsions:
REMARK  status: ('A' for Active; 'I' for Inactive)
REMARK    1  A    between atoms: C_17  and  N_18
REMARK    2  A    between atoms: C_19  and  C_20
REMARK    3  A    between atoms: C_19  and  C_21
REMARK    4  A    between atoms: C_22  and  C_23
REMARK    5  A    between atoms: C_24  and  C_25
REMARK                            x       y       z     vdW  Elec       q    Type
REMARK                         _______ _______ _______ _____ _____    ______ ____
ROOT
ATOM      1  C   UNL     1      -1.557   1.080  -1.699  0.00  0.00    +0.137 C 
ATOM      2  N   UNL     1      -2.256   2.175  -0.880  0.00  0.00    -0.309 N 
ATOM      3  C   UNL     1      -1.875   1.933   0.454  0.00  0.00    +0.080 C 
ATOM      4  C   UNL     1      -0.540   2.122   0.719  0.00  0.00    -0.017 C 
ATOM      5  C   UNL     1       0.420   1.485  -0.136  0.00  0.00    +0.004 C 
ATOM      6  C   UNL     1      -0.074   0.910  -1.282  0.00  0.00    -0.007 C 
ATOM      7  C   UNL     1      -0.154   3.500   1.273  0.00  0.00    +0.137 C 
ATOM      8  N   UNL     1      -1.393   3.919   1.858  0.00  0.00    -0.345 N 
ATOM      9  C   UNL     1      -1.922   4.860   2.685  0.00  0.00    +0.068 C 
ATOM     10  C   UNL     1      -3.280   4.837   2.649  0.00  0.00    +0.022 C 
ATOM     11  C   UNL     1      -3.938   5.698   1.663  0.00  0.00    -0.026 C 
ATOM     12  C   UNL     1      -3.187   6.046   0.424  0.00  0.00    +0.012 C 
ATOM     13  C   UNL     1      -3.933   5.940  -0.667  0.00  0.00    -0.034 C 
ATOM     14  C   UNL     1      -3.775   4.514  -1.432  0.00  0.00    +0.020 C 
ATOM     15  C   UNL     1      -3.149   3.246  -1.446  0.00  0.00    +0.075 C 
ATOM     16  C   UNL     1      -5.270   5.855   1.743  0.00  0.00    +0.000 C 
ATOM     17  C   UNL     1      -6.050   6.739   0.763  0.00  0.00    +0.089 C 
ATOM     18  C   UNL     1      -5.111   7.155  -0.467  0.00  0.00    +0.030 C 
ATOM     19  C   UNL     1      -5.949   7.726  -1.638  0.00  0.00    +0.022 C 
ATOM     20  H   UNL     1      -2.031   3.896   1.043  0.00  0.00    +0.146 HD
ENDROOT
BRANCH  17  21
ATOM     21  N   UNL     1      -7.403   6.243   0.513  0.00  0.00    -0.323 NA
ATOM     22  H   UNL     1      -7.572   6.151  -0.489  0.00  0.00    +0.119 HD
ATOM     23  H   UNL     1      -8.064   6.966   0.811  0.00  0.00    +0.119 HD
ENDBRANCH  17  21
BRANCH  18  24
ATOM     24  C   UNL     1      -4.514   8.597   0.111  0.00  0.00    -0.014 C 
ATOM     25  C   UNL     1      -3.350   9.283  -0.016  0.00  0.00    -0.004 C 
BRANCH  25  26
ATOM     26  C   UNL     1      -3.108  10.568   0.673  0.00  0.00    -0.005 C 
ATOM     27  C   UNL     1      -1.947  11.271   0.519  0.00  0.00    -0.030 C 
ATOM     28  C   UNL     1      -1.555  12.550   1.170  0.00  0.00    +0.035 C 
ENDBRANCH  25  26
ENDBRANCH  18  24
TORSDOF 3
