REMARK  Name = 
REMARK  11 active torsions:
REMARK  status: ('A' for Active; 'I' for Inactive)
REMARK    1  A    between atoms: C_2  and  C_3
REMARK    2  A    between atoms: C_3  and  C_4
REMARK    3  A    between atoms: C_4  and  C_5
REMARK    4  A    between atoms: C_4  and  N_9
REMARK    5  A    between atoms: C_5  and  C_6
REMARK    6  A    between atoms: C_6  and  C_7
REMARK    7  A    between atoms: C_7  and  C_8
REMARK    8  A    between atoms: N_11  and  C_12
REMARK    9  A    between atoms: C_13  and  C_14
REMARK   10  A    between atoms: N_15  and  C_16
REMARK   11  A    between atoms: C_17  and  N_18
REMARK                            x       y       z     vdW  Elec       q    Type
REMARK                         _______ _______ _______ _____ _____    ______ ____
ROOT
ATOM      1  N   UNL     1       5.493  -0.854  -2.108  0.00  0.00    -0.332 N 
ATOM      2  C   UNL     1       6.772  -0.496  -2.431  0.00  0.00    +0.181 C 
ATOM      3  N   UNL     1       7.424  -1.003  -3.426  0.00  0.00    -0.248 NA
ATOM      4  H   UNL     1       5.084  -1.583  -2.683  0.00  0.00    +0.147 HD
ENDROOT
BRANCH   3   5
ATOM      5  C   UNL     1       8.722  -0.587  -3.623  0.00  0.00    +0.113 C 
ATOM      6  C   UNL     1       9.434  -1.034  -4.670  0.00  0.00    +0.039 C 
BRANCH   6   7
ATOM      7  C   UNL     1      10.846  -0.655  -4.950  0.00  0.00    +0.112 C 
ATOM      8  N   UNL     1      11.465  -1.134  -5.985  0.00  0.00    -0.262 NA
BRANCH   8   9
ATOM      9  C   UNL     1      12.770  -0.749  -6.191  0.00  0.00    +0.131 C 
ATOM     10  C   UNL     1      13.498  -1.186  -7.236  0.00  0.00    +0.141 C 
BRANCH  10  11
ATOM     11  N   UNL     1      14.804  -0.805  -7.441  0.00  0.00    -0.203 NA
ATOM     12  C   UNL     1      15.327  -1.259  -8.394  0.00  0.00    +0.039 C 
ATOM     13  C   UNL     1      15.946  -1.669  -9.341  0.00  0.00    -0.057 C 
ATOM     14  C   UNL     1      16.671  -2.087 -10.338  0.00  0.00    +0.079 C 
ENDBRANCH  10  11
ENDBRANCH   8   9
ENDBRANCH   6   7
ENDBRANCH   3   5
BRANCH   1  15
ATOM     15  C   UNL     1       4.728  -0.388  -0.952  0.00  0.00    +0.075 C 
BRANCH  15  16
ATOM     16  C   UNL     1       3.206  -0.399  -1.269  0.00  0.00    +0.048 C 
BRANCH  16  18
ATOM     17  C   UNL     1       1.924   1.450  -2.424  0.00  0.00    +0.004 C 
ATOM     18  C   UNL     1       2.819   0.453  -2.453  0.00  0.00    -0.033 C 
ENDBRANCH  16  18
ENDBRANCH  15  16
BRANCH  15  19
ATOM     19  C   UNL     1       5.007  -1.278   0.287  0.00  0.00    +0.022 C 
BRANCH  19  20
ATOM     20  C   UNL     1       6.483  -1.270   0.699  0.00  0.00    +0.002 C 
BRANCH  20  21
ATOM     21  C   UNL     1       6.792  -2.119   1.931  0.00  0.00    -0.003 C 
ATOM     22  C   UNL     1       8.290  -2.094   2.214  0.00  0.00    +0.004 C 
ENDBRANCH  20  21
ENDBRANCH  19  20
ENDBRANCH  15  19
ENDBRANCH   1  15
TORSDOF 10
