REMARK  Name = 
REMARK  10 active torsions:
REMARK  status: ('A' for Active; 'I' for Inactive)
REMARK    1  A    between atoms: C_2  and  C_3
REMARK    2  A    between atoms: N_7  and  C_8
REMARK    3  A    between atoms: C_8  and  C_9
REMARK    4  A    between atoms: C_9  and  C_10
REMARK    5  A    between atoms: C_10  and  N_11
REMARK    6  A    between atoms: C_12  and  C_13
REMARK    7  A    between atoms: C_13  and  C_14
REMARK    8  A    between atoms: C_13  and  C_15
REMARK    9  A    between atoms: C_15  and  N_16
REMARK   10  A    between atoms: N_16  and  N_17
REMARK                            x       y       z     vdW  Elec       q    Type
REMARK                         _______ _______ _______ _____ _____    ______ ____
ROOT
ATOM      1  C   UNL     1       6.948  -0.269  -1.387  0.00  0.00    +0.143 C 
ENDROOT
BRANCH   1   2
ATOM      2  N   UNL     1       8.204  -1.011  -1.207  0.00  0.00    -0.295 NA
ATOM      3  C   UNL     1       9.239  -0.432  -1.715  0.00  0.00    +0.082 C 
BRANCH   3   4
ATOM      4  C   UNL     1      10.608  -1.074  -1.603  0.00  0.00    +0.042 C 
ATOM      5  C   UNL     1      11.102  -1.429  -3.004  0.00  0.00    +0.015 C 
BRANCH   4   6
ATOM      6  C   UNL     1      11.601  -0.128  -0.911  0.00  0.00    +0.107 C 
BRANCH   6   7
ATOM      7  N   UNL     1      11.170   0.198   0.454  0.00  0.00    -0.259 NA
ATOM      8  H   UNL     1      10.984  -0.662   0.984  0.00  0.00    +0.140 HD
BRANCH   7   9
ATOM      9  N   UNL     1      12.128   1.043   1.112  0.00  0.00    -0.270 NA
ATOM     10  H   UNL     1      12.179   1.971   0.683  0.00  0.00    +0.137 HD
ATOM     11  H   UNL     1      13.076   0.660   1.118  0.00  0.00    +0.137 HD
ENDBRANCH   7   9
ENDBRANCH   6   7
ENDBRANCH   4   6
ENDBRANCH   3   4
ENDBRANCH   1   2
BRANCH   1  12
ATOM     12  C   UNL     1       5.839  -0.997  -0.623  0.00  0.00    +0.047 C 
BRANCH  12  13
ATOM     13  C   UNL     1       4.473  -0.327  -0.802  0.00  0.00    +0.154 C 
BRANCH  13  20
ATOM     14  C   UNL     1      -0.110  -0.974  -0.098  0.00  0.00    +0.013 C 
ATOM     15  C   UNL     1      -0.819   0.182  -0.113  0.00  0.00    -0.067 C 
ATOM     16  C   UNL     1      -2.296   0.508  -0.116  0.00  0.00    +0.039 C 
ATOM     17  C   UNL     1       0.434   1.046  -0.098  0.00  0.00    +0.075 C 
ATOM     18  C   UNL     1       1.151  -0.276  -0.117  0.00  0.00    +0.017 C 
ATOM     19  C   UNL     1       2.369  -0.687  -0.095  0.00  0.00    -0.014 C 
ATOM     20  N   UNL     1       3.470  -1.097  -0.042  0.00  0.00    -0.241 NA
ENDBRANCH  13  20
ENDBRANCH  12  13
ENDBRANCH   1  12
TORSDOF 8
