REMARK  Name = 
REMARK  0 active torsions:
REMARK  status: ('A' for Active; 'I' for Inactive)
REMARK                            x       y       z     vdW  Elec       q    Type
REMARK                         _______ _______ _______ _____ _____    ______ ____
ROOT
ATOM      1  C   UNL     1       3.418  -0.351   0.506  0.00  0.00    +0.020 C 
ATOM      2  C   UNL     1       4.656  -0.739   0.878  0.00  0.00    +0.029 C 
ATOM      3  N   UNL     1       4.884  -1.679   1.862  0.00  0.00    -0.320 N 
ATOM      4  C   UNL     1       6.155  -2.195   1.807  0.00  0.00    +0.003 C 
ATOM      5  C   UNL     1       6.787  -2.859   2.771  0.00  0.00    +0.028 C 
ATOM      6  C   UNL     1       6.750  -1.779   0.474  0.00  0.00    +0.078 C 
ATOM      7  C   UNL     1       6.016  -0.434   0.204  0.00  0.00    +0.123 C 
ATOM      8  N   UNL     1       6.810   0.647   0.849  0.00  0.00    -0.303 N 
ATOM      9  C   UNL     1       6.566   1.964   1.098  0.00  0.00    +0.237 C 
ATOM     10  O   UNL     1       7.460   2.721   1.457  0.00  0.00    -0.271 OA
ATOM     11  C   UNL     1       5.169   2.404   1.064  0.00  0.00    +0.067 C 
ATOM     12  C   UNL     1       4.554   2.435  -0.131  0.00  0.00    +0.005 C 
ATOM     13  C   UNL     1       3.184   1.918  -0.161  0.00  0.00    +0.000 C 
ATOM     14  C   UNL     1       3.139   0.623  -0.547  0.00  0.00    +0.002 C 
ATOM     15  H   UNL     1       4.441  -1.547   2.764  0.00  0.00    +0.152 HD
ATOM     16  H   UNL     1       7.807   0.479   0.889  0.00  0.00    +0.150 HD
ENDROOT
TORSDOF 0
