REMARK  Name = 
REMARK  3 active torsions:
REMARK  status: ('A' for Active; 'I' for Inactive)
REMARK    1  A    between atoms: C_2  and  C_3
REMARK    2  A    between atoms: C_4  and  C_5
REMARK    3  A    between atoms: C_6  and  C_7
REMARK                            x       y       z     vdW  Elec       q    Type
REMARK                         _______ _______ _______ _____ _____    ______ ____
ROOT
ATOM      1  C   UNL     1      -1.177   0.366  -0.685  0.00  0.00    +0.061 C 
ATOM      2  C   UNL     1      -1.135  -0.831   0.037  0.00  0.00    -0.004 C 
ATOM      3  C   UNL     1       0.046  -1.142   0.716  0.00  0.00    +0.080 C 
ATOM      4  N   UNL     1       1.105  -0.313   0.658  0.00  0.00    -0.320 N 
ATOM      5  C   UNL     1       1.079   0.837  -0.035  0.00  0.00    +0.124 C 
ATOM      6  C   UNL     1      -0.066   1.203  -0.727  0.00  0.00    -0.104 C 
ATOM      7  H   UNL     1       1.922  -0.555   1.148  0.00  0.00    +0.152 HD
ENDROOT
BRANCH   2   8
ATOM      8  C   UNL     1      -2.341  -1.666   0.118  0.00  0.00    +0.010 C 
ATOM      9  C   UNL     1      -2.334  -3.001   0.261  0.00  0.00    +0.000 C 
BRANCH   9  10
ATOM     10  C   UNL     1      -3.546  -3.786   0.361  0.00  0.00    -0.004 C 
ATOM     11  C   UNL     1      -3.523  -5.121   0.504  0.00  0.00    -0.030 C 
ATOM     12  C   UNL     1      -4.745  -5.975   0.624  0.00  0.00    +0.035 C 
ENDBRANCH   9  10
ENDBRANCH   2   8
TORSDOF 2
