REMARK  Name = 
REMARK  2 active torsions:
REMARK  status: ('A' for Active; 'I' for Inactive)
REMARK    1  A    between atoms: C_2  and  C_3
REMARK    2  A    between atoms: C_9  and  C_10
REMARK                            x       y       z     vdW  Elec       q    Type
REMARK                         _______ _______ _______ _____ _____    ______ ____
ROOT
ATOM      1  C   UNL     1      14.487   7.610  -1.234  0.00  0.00    -0.019 C 
ATOM      2  C   UNL     1      13.387   8.167  -1.969  0.00  0.00    -0.042 C 
ATOM      3  C   UNL     1      12.774   7.767  -3.308  0.00  0.00    +0.044 C 
ATOM      4  C   UNL     1      12.437   9.475  -1.648  0.00  0.00    +0.023 C 
ATOM      5  C   UNL     1      12.070  10.203  -0.574  0.00  0.00    +0.112 C 
ATOM      6  N   UNL     1      12.490   9.988   0.717  0.00  0.00    -0.247 N 
ATOM      7  C   UNL     1      12.760   8.617   1.001  0.00  0.00    +0.184 C 
ATOM      8  C   UNL     1      14.268   8.651   1.050  0.00  0.00    +0.008 C 
ATOM      9  C   UNL     1      14.909   8.513  -0.144  0.00  0.00    -0.045 C 
ATOM     10  C   UNL     1      16.098   9.325  -0.575  0.00  0.00    +0.044 C 
ATOM     11  O   UNL     1      11.739  10.182   1.906  0.00  0.00    -0.246 OA
ATOM     12  C   UNL     1      11.661   8.751   2.065  0.00  0.00    +0.262 C 
ATOM     13  N   UNL     1      11.911   8.006   3.298  0.00  0.00    -0.321 N 
ATOM     14  C   UNL     1      12.702   6.881   3.100  0.00  0.00    +0.078 C 
ATOM     15  C   UNL     1      12.561   6.040   2.025  0.00  0.00    +0.075 C 
ATOM     16  C   UNL     1      13.810   5.763   1.204  0.00  0.00    -0.068 C 
ATOM     17  C   UNL     1      14.881   5.526   0.500  0.00  0.00    -0.069 C 
ATOM     18  C   UNL     1      16.130   5.249  -0.321  0.00  0.00    +0.061 C 
ATOM     19  C   UNL     1      15.663   6.258  -1.349  0.00  0.00    +0.017 C 
ATOM     20  H   UNL     1      11.006   7.683   3.641  0.00  0.00    +0.148 HD
ENDROOT
TORSDOF 0
