REMARK  Name = 
REMARK  3 active torsions:
REMARK  status: ('A' for Active; 'I' for Inactive)
REMARK    1  A    between atoms: C_5  and  C_6
REMARK    2  A    between atoms: C_6  and  N_7
REMARK    3  A    between atoms: C_8  and  C_9
REMARK                            x       y       z     vdW  Elec       q    Type
REMARK                         _______ _______ _______ _____ _____    ______ ____
ROOT
ATOM      1  C   UNL     1      -1.704  -0.453  -0.646  0.00  0.00    +0.052 C 
ATOM      2  C   UNL     1      -1.831   0.513   0.546  0.00  0.00    +0.029 C 
ATOM      3  C   UNL     1      -0.600   1.349   0.918  0.00  0.00    +0.142 C 
ATOM      4  N   UNL     1       0.159   1.712  -0.268  0.00  0.00    -0.290 NA
ATOM      5  C   UNL     1       1.291   1.142  -0.536  0.00  0.00    +0.040 C 
ATOM      6  C   UNL     1       2.025   0.123   0.334  0.00  0.00    +0.102 C 
ATOM      7  C   UNL     1       1.571  -1.278  -0.035  0.00  0.00    +0.006 C 
ATOM      8  C   UNL     1       2.409  -2.112  -0.672  0.00  0.00    +0.029 C 
ATOM      9  N   UNL     1       0.282  -1.665   0.349  0.00  0.00    -0.322 N 
ATOM     10  C   UNL     1      -0.765  -1.652  -0.574  0.00  0.00    +0.001 C 
ATOM     11  C   UNL     1      -0.967  -2.673  -1.424  0.00  0.00    +0.028 C 
ATOM     12  H   UNL     1       0.003  -1.137   1.172  0.00  0.00    +0.152 HD
ENDROOT
BRANCH   5  13
ATOM     13  C   UNL     1       1.936   1.476  -1.879  0.00  0.00    +0.191 C 
BRANCH  13  14
ATOM     14  N   UNL     1       2.847   2.616  -1.716  0.00  0.00    -0.290 NA
ATOM     15  C   UNL     1       2.297   3.761  -1.940  0.00  0.00    +0.075 C 
ATOM     16  C   UNL     1       3.122   5.011  -1.887  0.00  0.00    +0.056 C 
ENDBRANCH  13  14
ENDBRANCH   5  13
TORSDOF 2
