REMARK  Name = 
REMARK  8 active torsions:
REMARK  status: ('A' for Active; 'I' for Inactive)
REMARK    1  A    between atoms: N_7  and  N_8
REMARK    2  A    between atoms: N_8  and  C_9
REMARK    3  A    between atoms: C_10  and  C_11
REMARK    4  A    between atoms: C_12  and  N_13
REMARK    5  A    between atoms: C_14  and  C_15
REMARK    6  A    between atoms: C_15  and  C_16
REMARK    7  A    between atoms: C_17  and  C_18
REMARK    8  A    between atoms: C_18  and  C_19
REMARK                            x       y       z     vdW  Elec       q    Type
REMARK                         _______ _______ _______ _____ _____    ______ ____
ROOT
ATOM      1  C   UNL     1       5.479  -6.132  -0.143  0.00  0.00    +0.088 C 
ATOM      2  C   UNL     1       5.309  -7.460  -0.080  0.00  0.00    +0.018 C 
ENDROOT
BRANCH   1   3
ATOM      3  N   UNL     1       4.473  -5.201  -0.299  0.00  0.00    -0.267 N 
ATOM      4  H   UNL     1       3.531  -5.573  -0.165  0.00  0.00    +0.170 HD
BRANCH   3  11
ATOM      5  C   UNL     1       4.711  -3.430  -2.100  0.00  0.00    +0.054 C 
ATOM      6  C   UNL     1       3.775  -3.097  -1.158  0.00  0.00    +0.102 C 
ATOM      7  C   UNL     1       3.984  -1.586  -0.893  0.00  0.00    +0.204 C 
ATOM      8  O   UNL     1       3.293  -0.593  -0.970  0.00  0.00    -0.286 OA
ATOM      9  C   UNL     1       5.445  -1.713  -0.645  0.00  0.00    +0.078 C 
ATOM     10  C   UNL     1       5.510  -3.063  -0.881  0.00  0.00    +0.059 C 
ATOM     11  N   UNL     1       4.532  -3.813  -0.310  0.00  0.00    -0.218 N 
ENDBRANCH   3  11
ENDBRANCH   1   3
BRANCH   2  12
ATOM     12  C   UNL     1       6.390  -8.426   0.001  0.00  0.00    +0.021 C 
ATOM     13  C   UNL     1       6.191  -9.756   0.013  0.00  0.00    +0.110 C 
BRANCH  13  14
ATOM     14  N   UNL     1       7.229 -10.655   0.061  0.00  0.00    -0.267 NA
ATOM     15  C   UNL     1       6.898 -11.911   0.020  0.00  0.00    +0.087 C 
BRANCH  15  16
ATOM     16  C   UNL     1       7.944 -13.004   0.078  0.00  0.00    +0.074 C 
BRANCH  16  17
ATOM     17  C   UNL     1       8.284 -13.501  -1.302  0.00  0.00    -0.025 C 
ATOM     18  C   UNL     1       8.157 -14.775  -1.713  0.00  0.00    -0.025 C 
BRANCH  18  19
ATOM     19  C   UNL     1       8.619 -15.277  -3.053  0.00  0.00    +0.073 C 
BRANCH  19  20
ATOM     20  C   UNL     1       7.447 -15.844  -3.815  0.00  0.00    +0.078 C 
ATOM     21  N   UNL     1       7.123 -17.097  -3.801  0.00  0.00    -0.311 NA
ATOM     22  H   UNL     1       7.773 -17.637  -3.219  0.00  0.00    +0.186 HD
ENDBRANCH  19  20
ENDBRANCH  18  19
ENDBRANCH  16  17
ENDBRANCH  15  16
ENDBRANCH  13  14
ENDBRANCH   2  12
TORSDOF 8
