REMARK  Name = 
REMARK  14 active torsions:
REMARK  status: ('A' for Active; 'I' for Inactive)
REMARK    1  A    between atoms: C_1  and  C_2
REMARK    2  A    between atoms: C_2  and  N_3
REMARK    3  A    between atoms: N_3  and  C_4
REMARK    4  A    between atoms: C_5  and  C_6
REMARK    5  A    between atoms: C_6  and  C_7
REMARK    6  A    between atoms: C_7  and  C_8
REMARK    7  A    between atoms: C_8  and  C_9
REMARK    8  A    between atoms: C_9  and  C_10
REMARK    9  A    between atoms: N_11  and  C_12
REMARK   10  A    between atoms: C_12  and  C_13
REMARK   11  A    between atoms: C_13  and  N_15
REMARK   12  A    between atoms: N_15  and  N_16
REMARK   13  A    between atoms: N_16  and  C_17
REMARK   14  A    between atoms: C_18  and  C_19
REMARK                            x       y       z     vdW  Elec       q    Type
REMARK                         _______ _______ _______ _____ _____    ______ ____
ROOT
ATOM      1  C   UNL     1      11.739   0.823   7.789  0.00  0.00    +0.192 C 
ENDROOT
BRANCH   1   3
ATOM      2  C   UNL     1       9.820   1.529   6.666  0.00  0.00    +0.078 C 
ATOM      3  N   UNL     1      10.301   0.697   7.521  0.00  0.00    -0.290 NA
BRANCH   2   4
ATOM      4  C   UNL     1       8.341   1.510   6.362  0.00  0.00    +0.047 C 
BRANCH   4   5
ATOM      5  C   UNL     1       8.083   1.154   4.902  0.00  0.00    +0.006 C 
BRANCH   5   6
ATOM      6  C   UNL     1       6.582   1.085   4.613  0.00  0.00    +0.004 C 
BRANCH   6   7
ATOM      7  C   UNL     1       6.311   0.715   3.153  0.00  0.00    +0.028 C 
BRANCH   7   9
ATOM      8  C   UNL     1       4.224   1.422   1.970  0.00  0.00    +0.063 C 
ATOM      9  C   UNL     1       4.837   0.650   2.874  0.00  0.00    -0.012 C 
BRANCH   8  10
ATOM     10  N   UNL     1       2.892   1.412   1.668  0.00  0.00    -0.350 N 
ATOM     11  H   UNL     1       2.311   0.756   2.182  0.00  0.00    +0.146 HD
BRANCH  10  13
ATOM     12  C   UNL     1       0.764   1.981   0.612  0.00  0.00    +0.024 C 
ATOM     13  C   UNL     1       2.254   2.262   0.682  0.00  0.00    +0.097 C 
ENDBRANCH  10  13
ENDBRANCH   8  10
ENDBRANCH   7   9
ENDBRANCH   6   7
ENDBRANCH   5   6
ENDBRANCH   4   5
ENDBRANCH   2   4
ENDBRANCH   1   3
BRANCH   1  14
ATOM     14  C   UNL     1      12.336  -0.503   8.276  0.00  0.00    +0.036 C 
ATOM     15  C   UNL     1      13.623  -0.778   7.999  0.00  0.00    +0.032 C 
BRANCH  14  16
ATOM     16  N   UNL     1      11.546  -1.444   8.934  0.00  0.00    -0.270 N 
ATOM     17  H   UNL     1      10.575  -1.440   8.608  0.00  0.00    +0.170 HD
BRANCH  16  18
ATOM     18  N   UNL     1      11.798  -1.913  10.209  0.00  0.00    -0.274 N 
ATOM     19  H   UNL     1      12.252  -1.258  10.836  0.00  0.00    +0.169 HD
BRANCH  18  20
ATOM     20  C   UNL     1      11.410  -3.105  10.788  0.00  0.00    +0.088 C 
ATOM     21  C   UNL     1      11.654  -3.499  12.054  0.00  0.00    +0.025 C 
BRANCH  21  22
ATOM     22  C   UNL     1      11.255  -4.770  12.622  0.00  0.00    +0.061 C 
ATOM     23  C   UNL     1      11.533  -5.122  13.860  0.00  0.00    -0.070 C 
ATOM     24  C   UNL     1      11.771  -5.488  14.978  0.00  0.00    -0.077 C 
ATOM     25  C   UNL     1      12.023  -5.899  16.189  0.00  0.00    +0.078 C 
ENDBRANCH  21  22
ENDBRANCH  18  20
ENDBRANCH  16  18
ENDBRANCH  14  16
ENDBRANCH   1  14
TORSDOF 13
