REMARK  Name = 
REMARK  13 active torsions:
REMARK  status: ('A' for Active; 'I' for Inactive)
REMARK    1  A    between atoms: C_1  and  C_2
REMARK    2  A    between atoms: C_12  and  N_13
REMARK    3  A    between atoms: N_13  and  C_14
REMARK    4  A    between atoms: N_17  and  C_18
REMARK    5  A    between atoms: C_18  and  C_20
REMARK    6  A    between atoms: C_21  and  C_22
REMARK    7  A    between atoms: C_23  and  C_24
REMARK    8  A    between atoms: C_24  and  C_25
REMARK    9  A    between atoms: C_24  and  C_26
REMARK   10  A    between atoms: C_26  and  C_27
REMARK   11  A    between atoms: C_27  and  C_28
REMARK   12  A    between atoms: C_28  and  C_29
REMARK   13  A    between atoms: C_29  and  C_30
REMARK                            x       y       z     vdW  Elec       q    Type
REMARK                         _______ _______ _______ _____ _____    ______ ____
ROOT
ATOM      1  C   UNL     1       8.331  -1.941  -1.647  0.00  0.00    +0.044 C 
ATOM      2  C   UNL     1       6.940  -1.546  -1.249  0.00  0.00    -0.046 A 
ATOM      3  C   UNL     1       5.898  -2.484  -1.249  0.00  0.00    +0.047 A 
ATOM      4  C   UNL     1       4.626  -2.107  -0.834  0.00  0.00    +0.125 A 
ATOM      5  N   UNL     1       4.371  -0.842  -0.436  0.00  0.00    -0.240 NA
ATOM      6  C   UNL     1       5.382   0.063  -0.462  0.00  0.00    +0.113 A 
ATOM      7  C   UNL     1       6.670  -0.239  -0.853  0.00  0.00    +0.023 A 
ATOM      8  N   UNL     1       3.541  -2.973  -0.731  0.00  0.00    -0.272 N 
ATOM      9  C   UNL     1       3.401  -4.286  -1.032  0.00  0.00    +0.185 C 
ATOM     10  N   UNL     1       3.974  -4.966  -1.953  0.00  0.00    -0.272 NA
ATOM     11  N   UNL     1       2.503  -4.936  -0.184  0.00  0.00    -0.253 N 
ATOM     12  C   UNL     1       1.661  -6.035  -0.503  0.00  0.00    +0.258 C 
ATOM     13  C   UNL     1       3.040  -5.676   0.899  0.00  0.00    +0.222 C 
ATOM     14  N   UNL     1       2.411  -6.821   0.384  0.00  0.00    -0.281 N 
ATOM     15  H   UNL     1       2.792  -2.498  -0.245  0.00  0.00    +0.156 HD
ATOM     16  H   UNL     1       4.531  -4.334  -2.536  0.00  0.00    +0.189 HD
ENDROOT
BRANCH  12  17
ATOM     17  N   UNL     1       1.639  -6.467  -1.846  0.00  0.00    -0.317 N 
ATOM     18  H   UNL     1       2.445  -7.014  -2.143  0.00  0.00    +0.149 HD
BRANCH  17  19
ATOM     19  C   UNL     1       0.655  -6.054  -2.704  0.00  0.00    +0.062 C 
ATOM     20  C   UNL     1       0.734  -6.608  -3.908  0.00  0.00    +0.024 C 
ENDBRANCH  17  19
ENDBRANCH  12  17
BRANCH  14  21
ATOM     21  C   UNL     1       2.511  -8.125   0.737  0.00  0.00    +0.027 C 
ATOM     22  C   UNL     1       1.735  -8.966   0.049  0.00  0.00    +0.033 C 
BRANCH  21  23
ATOM     23  C   UNL     1       3.339  -8.540   1.852  0.00  0.00    +0.022 C 
ATOM     24  C   UNL     1       4.308  -9.472   1.792  0.00  0.00    +0.001 C 
BRANCH  24  25
ATOM     25  C   UNL     1       5.056  -9.920   2.953  0.00  0.00    -0.004 C 
ATOM     26  C   UNL     1       6.054 -10.820   2.895  0.00  0.00    -0.024 C 
BRANCH  26  27
ATOM     27  C   UNL     1       6.828 -11.313   4.107  0.00  0.00    +0.009 C 
ATOM     28  C   UNL     1       6.696 -12.836   4.228  0.00  0.00    +0.012 C 
BRANCH  27  29
ATOM     29  C   UNL     1       8.323 -10.925   4.053  0.00  0.00    +0.007 C 
BRANCH  29  30
ATOM     30  C   UNL     1       8.543  -9.409   4.050  0.00  0.00    +0.001 C 
BRANCH  30  31
ATOM     31  C   UNL     1      10.028  -9.040   4.023  0.00  0.00    -0.000 C 
BRANCH  31  32
ATOM     32  C   UNL     1      10.204  -7.520   3.988  0.00  0.00    -0.003 C 
ATOM     33  C   UNL     1      11.669  -7.119   3.949  0.00  0.00    +0.004 C 
ENDBRANCH  31  32
ENDBRANCH  30  31
ENDBRANCH  29  30
ENDBRANCH  27  29
ENDBRANCH  26  27
ENDBRANCH  24  25
ENDBRANCH  21  23
ENDBRANCH  14  21
TORSDOF 10
