REMARK  Name = 
REMARK  4 active torsions:
REMARK  status: ('A' for Active; 'I' for Inactive)
REMARK    1  A    between atoms: C_8  and  C_9
REMARK    2  A    between atoms: C_9  and  C_11
REMARK    3  A    between atoms: C_12  and  C_13
REMARK    4  A    between atoms: C_15  and  C_16
REMARK                            x       y       z     vdW  Elec       q    Type
REMARK                         _______ _______ _______ _____ _____    ______ ____
ROOT
ATOM      1  C   UNL     1       6.134  -9.062   1.303  0.00  0.00    -0.043 C 
ATOM      2  C   UNL     1       4.997  -9.309   0.691  0.00  0.00    -0.014 C 
ATOM      3  C   UNL     1       4.889  -9.581   2.099  0.00  0.00    +0.050 C 
ENDROOT
BRANCH   3   4
ATOM      4  C   UNL     1       4.053 -11.072   2.377  0.00  0.00    +0.041 C 
ATOM      5  C   UNL     1       4.880 -12.410   2.809  0.00  0.00    +0.082 C 
ATOM      6  N   UNL     1       4.541 -13.675   2.712  0.00  0.00    -0.291 NA
ATOM      7  C   UNL     1       5.519 -14.744   3.227  0.00  0.00    +0.168 C 
ATOM      8  C   UNL     1       4.900 -15.835   4.098  0.00  0.00    -0.004 C 
ATOM      9  C   UNL     1       4.511 -17.076   3.719  0.00  0.00    -0.003 C 
ATOM     10  C   UNL     1       3.072 -17.280   3.905  0.00  0.00    -0.004 C 
ATOM     11  C   UNL     1       2.352 -16.718   2.919  0.00  0.00    -0.026 C 
ATOM     12  C   UNL     1       0.973 -16.162   3.015  0.00  0.00    +0.035 C 
ATOM     13  C   UNL     1       0.498 -15.661   1.672  0.00  0.00    +0.022 C 
ATOM     14  C   UNL     1       2.712 -11.001   1.525  0.00  0.00    +0.014 C 
ATOM     15  C   UNL     1       1.486 -11.947   1.462  0.00  0.00    +0.028 C 
ATOM     16  C   UNL     1       1.700 -13.405   1.272  0.00  0.00    -0.027 C 
ATOM     17  C   UNL     1       0.728 -14.290   1.398  0.00  0.00    -0.069 C 
ATOM     18  C   UNL     1      -0.636 -14.592   1.581  0.00  0.00    +0.039 C 
ENDBRANCH   3   4
BRANCH   1  20
ATOM     19  C   UNL     1       6.785  -6.602   0.356  0.00  0.00    +0.053 C 
ATOM     20  C   UNL     1       6.976  -7.785   1.061  0.00  0.00    +0.008 C 
BRANCH  19  21
ATOM     21  C   UNL     1       7.642  -5.316  -0.099  0.00  0.00    +0.201 C 
ATOM     22  O   UNL     1       7.044  -4.474  -0.798  0.00  0.00    -0.286 OA
BRANCH  21  30
ATOM     23  C   UNL     1      11.843  -3.061  -0.477  0.00  0.00    -0.020 C 
ATOM     24  C   UNL     1      10.800  -3.151  -1.327  0.00  0.00    -0.020 C 
ATOM     25  C   UNL     1       9.734  -3.394  -0.207  0.00  0.00    +0.076 C 
ATOM     26  C   UNL     1      11.006  -3.418   0.725  0.00  0.00    +0.072 C 
ATOM     27  C   UNL     1      11.082  -4.852   1.131  0.00  0.00    +0.042 C 
ATOM     28  C   UNL     1      12.210  -5.335   1.655  0.00  0.00    +0.034 C 
ATOM     29  N   UNL     1       9.955  -5.631   0.892  0.00  0.00    -0.252 NA
ATOM     30  C   UNL     1       9.130  -4.931   0.175  0.00  0.00    +0.096 C 
ENDBRANCH  21  30
ENDBRANCH  19  21
ENDBRANCH   1  20
TORSDOF 4
