REMARK  Name = 
REMARK  18 active torsions:
REMARK  status: ('A' for Active; 'I' for Inactive)
REMARK    1  A    between atoms: C_2  and  C_3
REMARK    2  A    between atoms: C_2  and  C_4
REMARK    3  A    between atoms: C_4  and  C_5
REMARK    4  A    between atoms: C_6  and  N_7
REMARK    5  A    between atoms: N_10  and  C_11
REMARK    6  A    between atoms: C_16  and  C_17
REMARK    7  A    between atoms: C_17  and  C_18
REMARK    8  A    between atoms: C_18  and  C_19
REMARK    9  A    between atoms: C_20  and  N_21
REMARK   10  A    between atoms: N_21  and  C_22
REMARK   11  A    between atoms: N_21  and  C_23
REMARK   12  A    between atoms: C_23  and  C_24
REMARK   13  A    between atoms: C_23  and  C_31
REMARK   14  A    between atoms: C_26  and  C_27
REMARK   15  A    between atoms: C_26  and  C_29
REMARK   16  A    between atoms: C_29  and  C_30
REMARK   17  A    between atoms: C_31  and  C_32
REMARK   18  A    between atoms: C_32  and  C_33
REMARK                            x       y       z     vdW  Elec       q    Type
REMARK                         _______ _______ _______ _____ _____    ______ ____
ROOT
ATOM      1  C   UNL     1      13.608  -3.941   1.557  0.00  0.00    +0.025 C 
ATOM      2  C   UNL     1      13.170  -5.184   1.792  0.00  0.00    -0.005 C 
ATOM      3  C   UNL     1      11.799  -5.649   1.423  0.00  0.00    +0.044 C 
ATOM      4  C   UNL     1      10.829  -4.490   1.186  0.00  0.00    +0.085 C 
ATOM      5  N   UNL     1      11.437  -3.453   0.348  0.00  0.00    -0.308 NA
ATOM      6  C   UNL     1      12.656  -2.879   0.972  0.00  0.00    +0.098 C 
ATOM      7  H   UNL     1      10.758  -2.720   0.154  0.00  0.00    +0.123 HD
ENDROOT
BRANCH   1  11
ATOM      8  N   UNL     1      17.231  -3.893   1.959  0.00  0.00    -0.276 N 
ATOM      9  C   UNL     1      16.004  -4.474   1.684  0.00  0.00    +0.307 C 
ATOM     10  O   UNL     1      15.913  -5.670   1.388  0.00  0.00    -0.252 OA
ATOM     11  N   UNL     1      14.946  -3.593   1.736  0.00  0.00    -0.272 N 
ATOM     12  H   UNL     1      17.265  -2.947   2.306  0.00  0.00    +0.156 HD
ATOM     13  H   UNL     1      15.206  -2.630   1.589  0.00  0.00    +0.156 HD
BRANCH   8  15
ATOM     14  C   UNL     1      19.616  -4.175   2.106  0.00  0.00    -0.007 C 
ATOM     15  C   UNL     1      18.386  -4.631   1.858  0.00  0.00    +0.072 C 
BRANCH  14  16
ATOM     16  C   UNL     1      20.812  -5.087   2.000  0.00  0.00    +0.058 C 
BRANCH  16  18
ATOM     17  C   UNL     1      23.127  -4.379   1.420  0.00  0.00    +0.007 C 
ATOM     18  C   UNL     1      21.865  -4.616   1.022  0.00  0.00    -0.076 C 
ATOM     19  C   UNL     1      21.485  -4.504  -0.430  0.00  0.00    +0.039 C 
ENDBRANCH  16  18
ENDBRANCH  14  16
ENDBRANCH   8  15
ENDBRANCH   1  11
BRANCH   6  20
ATOM     20  C   UNL     1      12.249  -1.760   1.968  0.00  0.00    +0.029 C 
BRANCH  20  21
ATOM     21  C   UNL     1      13.417  -1.010   2.607  0.00  0.00    +0.030 C 
BRANCH  21  22
ATOM     22  C   UNL     1      14.303  -0.379   1.570  0.00  0.00    -0.012 C 
ATOM     23  C   UNL     1      15.423   0.261   1.906  0.00  0.00    +0.066 C 
BRANCH  23  24
ATOM     24  N   UNL     1      16.447   0.750   1.113  0.00  0.00    -0.332 N 
ATOM     25  C   UNL     1      16.460   0.587  -0.350  0.00  0.00    +0.129 C 
BRANCH  24  26
ATOM     26  C   UNL     1      17.558   1.592   1.657  0.00  0.00    +0.103 C 
BRANCH  26  27
ATOM     27  C   UNL     1      17.132   3.047   1.570  0.00  0.00    +0.046 C 
ATOM     28  C   UNL     1      17.909   4.085   1.402  0.00  0.00    -0.121 C 
ATOM     29  C   UNL     1      18.640   5.163   1.233  0.00  0.00    +0.002 C 
BRANCH  29  30
ATOM     30  C   UNL     1      20.094   5.096   0.871  0.00  0.00    +0.252 C 
ATOM     31  F   UNL     1      20.790   6.134   1.410  0.00  0.00    -0.244 F 
ENDBRANCH  29  30
BRANCH  29  32
ATOM     32  C   UNL     1      18.041   6.558   1.315  0.00  0.00    +0.038 C 
ATOM     33  C   UNL     1      17.581   7.091  -0.035  0.00  0.00    +0.009 C 
ENDBRANCH  29  32
ENDBRANCH  26  27
BRANCH  26  34
ATOM     34  C   UNL     1      17.938   1.222   3.114  0.00  0.00    +0.027 C 
BRANCH  34  35
ATOM     35  C   UNL     1      18.443  -0.217   3.291  0.00  0.00    -0.001 C 
ATOM     36  C   UNL     1      18.728  -0.510   4.758  0.00  0.00    +0.004 C 
ENDBRANCH  34  35
ENDBRANCH  26  34
ENDBRANCH  24  26
ENDBRANCH  23  24
ENDBRANCH  21  22
ENDBRANCH  20  21
ENDBRANCH   6  20
TORSDOF 14
