REMARK  Name = 
REMARK  9 active torsions:
REMARK  status: ('A' for Active; 'I' for Inactive)
REMARK    1  A    between atoms: C_2  and  C_3
REMARK    2  A    between atoms: C_5  and  C_10
REMARK    3  A    between atoms: C_8  and  C_9
REMARK    4  A    between atoms: C_11  and  C_12
REMARK    5  A    between atoms: C_13  and  C_14
REMARK    6  A    between atoms: C_14  and  C_15
REMARK    7  A    between atoms: C_15  and  C_16
REMARK    8  A    between atoms: C_20  and  C_21
REMARK    9  A    between atoms: C_21  and  C_22
REMARK                            x       y       z     vdW  Elec       q    Type
REMARK                         _______ _______ _______ _____ _____    ______ ____
ROOT
ATOM      1  C   UNL     1       3.125  -1.176   0.336  0.00  0.00    +0.005 C 
ATOM      2  C   UNL     1       4.460  -1.104   0.516  0.00  0.00    -0.022 C 
ATOM      3  C   UNL     1       5.363   0.057   0.133  0.00  0.00    +0.067 C 
ATOM      4  N   UNL     1       6.593  -0.003  -0.304  0.00  0.00    -0.252 NA
ATOM      5  C   UNL     1       7.255  -1.193  -0.486  0.00  0.00    +0.041 C 
ATOM      6  C   UNL     1       8.549  -1.286  -0.121  0.00  0.00    -0.007 C 
ATOM      7  C   UNL     1       9.390  -0.185   0.439  0.00  0.00    +0.037 C 
ATOM      8  C   UNL     1       5.185  -2.311   1.063  0.00  0.00    +0.038 C 
ATOM      9  C   UNL     1       5.759  -3.165  -0.075  0.00  0.00    +0.014 C 
ATOM     10  C   UNL     1       6.510  -2.347  -1.149  0.00  0.00    +0.037 C 
ENDROOT
BRANCH   1  12
ATOM     11  C   UNL     1       0.928  -0.450  -0.447  0.00  0.00    +0.008 C 
ATOM     12  C   UNL     1       2.243  -0.236  -0.314  0.00  0.00    -0.007 C 
ENDBRANCH   1  12
BRANCH   3  13
ATOM     13  C   UNL     1       4.811   1.422   0.426  0.00  0.00    +0.028 C 
ATOM     14  C   UNL     1       5.204   2.482  -0.300  0.00  0.00    +0.002 C 
BRANCH  14  15
ATOM     15  C   UNL     1       4.801   3.845  -0.024  0.00  0.00    -0.004 C 
ATOM     16  C   UNL     1       5.208   4.884  -0.773  0.00  0.00    -0.027 C 
BRANCH  16  17
ATOM     17  C   UNL     1       4.871   6.323  -0.475  0.00  0.00    +0.031 C 
BRANCH  17  18
ATOM     18  C   UNL     1       4.754   7.167  -1.751  0.00  0.00    +0.030 C 
BRANCH  18  19
ATOM     19  C   UNL     1       4.438   8.606  -1.447  0.00  0.00    -0.034 C 
ATOM     20  C   UNL     1       5.220   9.638  -1.790  0.00  0.00    +0.004 C 
ENDBRANCH  18  19
ENDBRANCH  17  18
ENDBRANCH  16  17
ENDBRANCH  14  15
ENDBRANCH   3  13
BRANCH  10  21
ATOM     21  C   UNL     1       7.348  -3.296  -2.039  0.00  0.00    +0.006 C 
ATOM     22  C   UNL     1       8.119  -2.588  -3.148  0.00  0.00    +0.004 C 
ENDBRANCH  10  21
TORSDOF 7
