REMARK  Name = 
REMARK  1 active torsions:
REMARK  status: ('A' for Active; 'I' for Inactive)
REMARK    1  A    between atoms: C_4  and  C_7
REMARK                            x       y       z     vdW  Elec       q    Type
REMARK                         _______ _______ _______ _____ _____    ______ ____
ROOT
ATOM      1  C   UNL     1      -3.152  -2.466   5.757  0.00  0.00    +0.133 C 
ATOM      2  N   UNL     1      -2.669  -1.949   4.412  0.00  0.00    -0.318 N 
ATOM      3  C   UNL     1      -1.942  -0.731   4.458  0.00  0.00    +0.071 C 
ATOM      4  C   UNL     1      -2.143   0.306   3.625  0.00  0.00    +0.015 C 
ATOM      5  C   UNL     1      -3.186   0.159   2.616  0.00  0.00    -0.001 C 
ATOM      6  C   UNL     1      -3.214  -1.098   2.129  0.00  0.00    -0.005 C 
ATOM      7  C   UNL     1      -3.495  -2.201   3.172  0.00  0.00    +0.097 C 
ATOM      8  C   UNL     1      -3.363  -3.581   2.496  0.00  0.00    +0.027 C 
ATOM      9  C   UNL     1      -2.007  -4.303   2.481  0.00  0.00    +0.006 C 
ATOM     10  C   UNL     1      -1.680  -5.218   3.668  0.00  0.00    +0.027 C 
ATOM     11  C   UNL     1      -2.872  -5.669   4.461  0.00  0.00    -0.026 C 
ATOM     12  C   UNL     1      -3.321  -5.029   5.555  0.00  0.00    +0.001 C 
ATOM     13  C   UNL     1      -2.661  -3.871   6.112  0.00  0.00    -0.030 C 
ATOM     14  C   UNL     1      -1.653  -4.093   6.991  0.00  0.00    +0.014 C 
ENDROOT
BRANCH   1  18
ATOM     15  C   UNL     1      -7.325  -1.592   6.632  0.00  0.00    +0.000 A 
ATOM     16  C   UNL     1      -7.006  -2.471   5.602  0.00  0.00    +0.000 A 
ATOM     17  C   UNL     1      -5.676  -2.806   5.365  0.00  0.00    +0.006 A 
ATOM     18  C   UNL     1      -4.624  -2.206   6.076  0.00  0.00    -0.023 A 
ATOM     19  C   UNL     1      -4.972  -1.351   7.140  0.00  0.00    +0.006 A 
ATOM     20  C   UNL     1      -6.310  -1.059   7.421  0.00  0.00    +0.000 A 
ENDBRANCH   1  18
TORSDOF 1
