REMARK  Name = 
REMARK  8 active torsions:
REMARK  status: ('A' for Active; 'I' for Inactive)
REMARK    1  A    between atoms: C_1  and  C_2
REMARK    2  A    between atoms: C_2  and  C_3
REMARK    3  A    between atoms: C_5  and  C_6
REMARK    4  A    between atoms: N_8  and  N_9
REMARK    5  A    between atoms: N_9  and  C_10
REMARK    6  A    between atoms: C_10  and  C_11
REMARK    7  A    between atoms: C_12  and  C_13
REMARK    8  A    between atoms: C_14  and  C_15
REMARK                            x       y       z     vdW  Elec       q    Type
REMARK                         _______ _______ _______ _____ _____    ______ ____
ROOT
ATOM      1  C   UNL     1      -0.038   0.791  -3.205  0.00  0.00    +0.126 C 
ENDROOT
BRANCH   1   2
ATOM      2  N   UNL     1       0.766   0.287  -2.082  0.00  0.00    -0.249 NA
ATOM      3  H   UNL     1       0.840   1.081  -1.440  0.00  0.00    +0.141 HD
BRANCH   2   9
ATOM      4  C   UNL     1       2.950  -0.518  -1.276  0.00  0.00    +0.096 C 
ATOM      5  C   UNL     1       2.961  -2.015  -1.299  0.00  0.00    -0.007 C 
ATOM      6  C   UNL     1       2.477  -2.469  -2.460  0.00  0.00    -0.060 C 
ATOM      7  C   UNL     1       2.331  -3.874  -2.908  0.00  0.00    +0.040 C 
ATOM      8  C   UNL     1       2.091  -1.329  -3.339  0.00  0.00    +0.133 C 
ATOM      9  N   UNL     1       2.136  -0.095  -2.492  0.00  0.00    -0.232 NA
BRANCH   4  11
ATOM     10  C   UNL     1       3.418  -0.346   1.250  0.00  0.00    +0.006 C 
ATOM     11  C   UNL     1       2.522   0.072   0.088  0.00  0.00    +0.021 C 
ENDBRANCH   4  11
ENDBRANCH   2   9
ENDBRANCH   1   2
BRANCH   1  12
ATOM     12  C   UNL     1      -1.340   1.280  -2.637  0.00  0.00    -0.010 C 
ATOM     13  C   UNL     1      -1.555   2.552  -2.269  0.00  0.00    -0.003 C 
BRANCH  13  14
ATOM     14  C   UNL     1      -2.765   2.974  -1.608  0.00  0.00    +0.000 C 
ATOM     15  C   UNL     1      -2.803   4.067  -0.830  0.00  0.00    +0.008 C 
BRANCH  15  16
ATOM     16  C   UNL     1      -3.974   4.529  -0.068  0.00  0.00    -0.025 A 
ATOM     17  C   UNL     1      -4.991   3.665   0.360  0.00  0.00    +0.008 A 
ATOM     18  C   UNL     1      -6.058   4.142   1.128  0.00  0.00    +0.001 A 
ATOM     19  C   UNL     1      -6.114   5.487   1.487  0.00  0.00    +0.000 A 
ATOM     20  C   UNL     1      -5.100   6.353   1.085  0.00  0.00    +0.001 A 
ATOM     21  C   UNL     1      -4.036   5.876   0.315  0.00  0.00    +0.008 A 
ENDBRANCH  15  16
ENDBRANCH  13  14
ENDBRANCH   1  12
TORSDOF 6
