REMARK  Name = 
REMARK  14 active torsions:
REMARK  status: ('A' for Active; 'I' for Inactive)
REMARK    1  A    between atoms: C_2  and  C_3
REMARK    2  A    between atoms: C_4  and  C_5
REMARK    3  A    between atoms: C_6  and  C_7
REMARK    4  A    between atoms: C_6  and  C_13
REMARK    5  A    between atoms: C_8  and  C_9
REMARK    6  A    between atoms: C_9  and  C_10
REMARK    7  A    between atoms: C_10  and  N_11
REMARK    8  A    between atoms: C_14  and  C_15
REMARK    9  A    between atoms: C_20  and  C_21
REMARK   10  A    between atoms: C_20  and  C_22
REMARK   11  A    between atoms: C_22  and  C_23
REMARK   12  A    between atoms: C_23  and  C_25
REMARK   13  A    between atoms: N_26  and  C_27
REMARK   14  A    between atoms: C_28  and  C_29
REMARK                            x       y       z     vdW  Elec       q    Type
REMARK                         _______ _______ _______ _____ _____    ______ ____
ROOT
ATOM      1  C   UNL     1       9.562  -2.223  -4.720  0.00  0.00    +0.104 C 
ATOM      2  N   UNL     1       9.555  -1.214  -5.851  0.00  0.00    -0.336 N 
ATOM      3  C   UNL     1      10.636  -0.350  -6.055  0.00  0.00    +0.120 C 
ATOM      4  C   UNL     1      11.517  -0.426  -5.111  0.00  0.00    -0.109 C 
ATOM      5  C   UNL     1      11.803  -1.181  -4.094  0.00  0.00    +0.034 C 
ATOM      6  C   UNL     1      11.059  -2.530  -4.163  0.00  0.00    +0.019 C 
ATOM      7  C   UNL     1      10.978  -3.204  -2.781  0.00  0.00    +0.018 C 
ATOM      8  H   UNL     1       8.715  -0.633  -5.771  0.00  0.00    +0.147 HD
ENDROOT
BRANCH   1  10
ATOM      9  C   UNL     1       7.511  -2.156  -3.160  0.00  0.00    +0.005 C 
ATOM     10  C   UNL     1       8.643  -1.634  -3.661  0.00  0.00    -0.004 C 
BRANCH   9  12
ATOM     11  C   UNL     1       5.468  -1.205  -2.301  0.00  0.00    +0.008 C 
ATOM     12  C   UNL     1       6.759  -1.530  -2.057  0.00  0.00    -0.026 C 
BRANCH  11  14
ATOM     13  C   UNL     1       3.314  -0.167  -1.622  0.00  0.00    -0.001 C 
ATOM     14  C   UNL     1       4.586  -0.499  -1.388  0.00  0.00    +0.001 C 
BRANCH  13  16
ATOM     15  C   UNL     1       1.296   1.019  -0.795  0.00  0.00    +0.008 C 
ATOM     16  C   UNL     1       2.555   0.597  -0.648  0.00  0.00    -0.008 C 
ENDBRANCH  13  16
ENDBRANCH  11  14
BRANCH  12  17
ATOM     17  C   UNL     1       7.352  -1.339  -0.721  0.00  0.00    +0.004 C 
ATOM     18  C   UNL     1       8.472  -0.641  -0.466  0.00  0.00    -0.024 C 
BRANCH  18  19
ATOM     19  C   UNL     1       9.144  -0.494   0.874  0.00  0.00    +0.050 C 
BRANCH  19  20
ATOM     20  C   UNL     1       9.769   0.900   1.020  0.00  0.00    +0.145 C 
BRANCH  20  21
ATOM     21  N   UNL     1      10.489   0.995   2.299  0.00  0.00    -0.299 NA
ATOM     22  C   UNL     1      11.065   2.139   2.446  0.00  0.00    +0.134 C 
ENDBRANCH  20  21
ENDBRANCH  19  20
ENDBRANCH  18  19
ENDBRANCH  12  17
ENDBRANCH   9  12
ENDBRANCH   1  10
BRANCH   6  23
ATOM     23  C   UNL     1      11.837  -3.464  -5.165  0.00  0.00    +0.049 C 
BRANCH  23  24
ATOM     24  C   UNL     1      13.276  -3.795  -4.783  0.00  0.00    -0.035 C 
ATOM     25  C   UNL     1      14.351  -3.079  -5.154  0.00  0.00    +0.014 C 
BRANCH  24  26
ATOM     26  C   UNL     1      13.538  -5.023  -3.981  0.00  0.00    +0.113 C 
ATOM     27  N   UNL     1      12.569  -5.812  -3.653  0.00  0.00    -0.263 NA
BRANCH  27  28
ATOM     28  C   UNL     1      12.858  -6.912  -2.903  0.00  0.00    +0.106 C 
ATOM     29  C   UNL     1      11.860  -7.712  -2.509  0.00  0.00    -0.011 C 
ATOM     30  C   UNL     1      12.012  -8.950  -1.696  0.00  0.00    +0.037 C 
ENDBRANCH  27  28
ENDBRANCH  24  26
ENDBRANCH  23  24
ENDBRANCH   6  23
TORSDOF 12
