REMARK  Name = 
REMARK  0 active torsions:
REMARK  status: ('A' for Active; 'I' for Inactive)
REMARK                            x       y       z     vdW  Elec       q    Type
REMARK                         _______ _______ _______ _____ _____    ______ ____
ROOT
ATOM      1  C   UNL     1      -1.618   0.741  -0.901  0.00  0.00    +0.042 C 
ATOM      2  C   UNL     1      -0.172   0.790  -1.540  0.00  0.00    +0.063 C 
ATOM      3  C   UNL     1       0.628  -0.514  -1.117  0.00  0.00    +0.158 C 
ATOM      4  C   UNL     1       0.724   0.370   0.295  0.00  0.00    +0.019 C 
ATOM      5  C   UNL     1      -0.361   0.588   1.088  0.00  0.00    -0.022 C 
ATOM      6  C   UNL     1      -1.521  -0.142   0.476  0.00  0.00    +0.035 C 
ATOM      7  C   UNL     1      -0.854  -1.612   0.583  0.00  0.00    +0.118 C 
ATOM      8  N   UNL     1       0.440  -1.606  -0.165  0.00  0.00    -0.275 N 
ATOM      9  C   UNL     1       1.517  -2.467  -0.079  0.00  0.00    +0.330 C 
ATOM     10  O   UNL     1       2.553  -2.335  -0.729  0.00  0.00    -0.279 OA
ATOM     11  N   UNL     1      -0.178  -1.410  -2.136  0.00  0.00    -0.194 NA
ATOM     12  C   UNL     1      -1.349  -1.421  -2.244  0.00  0.00    +0.094 C 
ATOM     13  N   UNL     1      -2.495  -1.129  -2.235  0.00  0.00    -0.205 NA
ATOM     14  C   UNL     1      -2.530   0.324  -2.083  0.00  0.00    +0.211 C 
ATOM     15 CL   UNL     1      -4.153   1.011  -2.021  0.00  0.00    -0.095 Cl
ENDROOT
TORSDOF 0
