REMARK  Name = 
REMARK  6 active torsions:
REMARK  status: ('A' for Active; 'I' for Inactive)
REMARK    1  A    between atoms: C_5  and  C_6
REMARK    2  A    between atoms: C_7  and  C_8
REMARK    3  A    between atoms: C_7  and  N_10
REMARK    4  A    between atoms: C_8  and  N_9
REMARK    5  A    between atoms: N_10  and  C_11
REMARK    6  A    between atoms: N_14  and  C_15
REMARK                            x       y       z     vdW  Elec       q    Type
REMARK                         _______ _______ _______ _____ _____    ______ ____
ROOT
ATOM      1  N   UNL     1       1.030   3.277  -0.061  0.00  0.00    -0.325 N 
ATOM      2  H   UNL     1       1.886   2.825   0.231  0.00  0.00    +0.148 HD
ENDROOT
BRANCH   1   3
ATOM      3  C   UNL     1       1.175   4.706  -0.123  0.00  0.00    +0.181 C 
ATOM      4  N   UNL     1       2.413   4.938  -0.817  0.00  0.00    -0.308 N 
ATOM      5  C   UNL     1       3.519   5.581  -0.318  0.00  0.00    +0.122 C 
ATOM      6  N   UNL     1       4.578   5.865  -1.007  0.00  0.00    -0.272 NA
ATOM      7  C   UNL     1       4.647   5.523  -2.414  0.00  0.00    +0.172 C 
ATOM      8  C   UNL     1       1.206   5.269   1.262  0.00  0.00    +0.015 C 
ATOM      9  C   UNL     1       2.254   5.865   1.846  0.00  0.00    +0.010 C 
ATOM     10  C   UNL     1       3.504   6.005   1.141  0.00  0.00    +0.007 C 
ATOM     11  C   UNL     1       4.605   6.489   1.733  0.00  0.00    +0.020 C 
ATOM     12  H   UNL     1       2.401   4.652  -1.782  0.00  0.00    +0.150 HD
ENDBRANCH   1   3
BRANCH   1  19
ATOM     13  C   UNL     1       0.786  -0.983   0.056  0.00  0.00    +0.004 C 
ATOM     14  C   UNL     1       1.159   0.315   0.062  0.00  0.00    +0.010 C 
ATOM     15  C   UNL     1      -0.059   1.124   0.071  0.00  0.00    -0.007 C 
ATOM     16  C   UNL     1      -1.173   0.184   0.122  0.00  0.00    +0.012 C 
ATOM     17  C   UNL     1      -0.665  -1.060   0.092  0.00  0.00    -0.050 C 
ATOM     18  C   UNL     1      -1.410  -2.344   0.085  0.00  0.00    +0.044 C 
ATOM     19  C   UNL     1      -0.122   2.478  -0.019  0.00  0.00    +0.026 C 
BRANCH  19  20
ATOM     20  C   UNL     1      -1.480   3.176  -0.181  0.00  0.00    +0.129 C 
BRANCH  20  21
ATOM     21  N   UNL     1      -1.800   4.101   0.905  0.00  0.00    -0.325 NA
ATOM     22  H   UNL     1      -1.883   3.563   1.767  0.00  0.00    +0.119 HD
ATOM     23  H   UNL     1      -2.724   4.496   0.732  0.00  0.00    +0.119 HD
ENDBRANCH  20  21
ENDBRANCH  19  20
ENDBRANCH   1  19
TORSDOF 4
