REMARK  Name = 
REMARK  10 active torsions:
REMARK  status: ('A' for Active; 'I' for Inactive)
REMARK    1  A    between atoms: C_1  and  C_2
REMARK    2  A    between atoms: C_5  and  C_6
REMARK    3  A    between atoms: C_8  and  O_9
REMARK    4  A    between atoms: C_8  and  N_10
REMARK    5  A    between atoms: N_10  and  C_11
REMARK    6  A    between atoms: C_12  and  C_13
REMARK    7  A    between atoms: C_19  and  C_21
REMARK    8  A    between atoms: C_21  and  C_22
REMARK    9  A    between atoms: C_23  and  C_24
REMARK   10  A    between atoms: C_25  and  N_26
REMARK                            x       y       z     vdW  Elec       q    Type
REMARK                         _______ _______ _______ _____ _____    ______ ____
ROOT
ATOM      1  C   UNL     1      -3.918  -3.337   3.358  0.00  0.00    +0.003 C 
ATOM      2  C   UNL     1      -2.693  -3.108   2.824  0.00  0.00    -0.045 C 
ATOM      3  C   UNL     1      -1.773  -1.964   3.253  0.00  0.00    +0.059 C 
ATOM      4  C   UNL     1      -1.023  -2.455   4.479  0.00  0.00    -0.026 C 
ATOM      5  C   UNL     1      -0.238  -3.541   4.320  0.00  0.00    -0.026 C 
ATOM      6  C   UNL     1      -0.703  -4.862   4.891  0.00  0.00    +0.057 C 
ATOM      7  C   UNL     1      -1.352  -5.801   3.857  0.00  0.00    -0.064 C 
ATOM      8  C   UNL     1      -1.859  -5.491   2.631  0.00  0.00    -0.004 C 
ATOM      9  C   UNL     1      -1.983  -4.142   1.956  0.00  0.00    +0.101 C 
ENDROOT
BRANCH   9  10
ATOM     10  N   UNL     1      -2.634  -4.239   0.653  0.00  0.00    -0.321 NA
ATOM     11  H   UNL     1      -3.502  -4.758   0.744  0.00  0.00    +0.119 HD
ATOM     12  H   UNL     1      -2.030  -4.757   0.020  0.00  0.00    +0.119 HD
ENDBRANCH   9  10
BRANCH   1  14
ATOM     13  C   UNL     1      -5.742  -2.823   4.937  0.00  0.00    +0.070 C 
ATOM     14  C   UNL     1      -4.629  -2.473   4.278  0.00  0.00    +0.015 C 
BRANCH  13  15
ATOM     15  N   UNL     1      -6.488  -1.990   5.732  0.00  0.00    -0.319 N 
ATOM     16  H   UNL     1      -6.166  -1.033   5.820  0.00  0.00    +0.149 HD
BRANCH  15  24
ATOM     17  C   UNL     1      -9.896  -0.142   5.520  0.00  0.00    +0.035 C 
ATOM     18  C   UNL     1      -9.146  -0.155   6.810  0.00  0.00    -0.022 C 
ATOM     19  C   UNL     1      -8.233  -1.070   7.174  0.00  0.00    +0.001 C 
ATOM     20  C   UNL     1      -7.445  -1.283   8.349  0.00  0.00    -0.040 C 
ATOM     21  C   UNL     1      -6.986  -0.550   9.371  0.00  0.00    -0.026 C 
ATOM     22  C   UNL     1      -7.145   0.918   9.593  0.00  0.00    +0.035 C 
ATOM     23  C   UNL     1      -7.266  -2.749   7.975  0.00  0.00    +0.095 C 
ATOM     24  C   UNL     1      -7.639  -2.326   6.513  0.00  0.00    +0.160 C 
BRANCH  24  25
ATOM     25  O   UNL     1      -8.595  -3.153   5.832  0.00  0.00    -0.367 OA
ATOM     26  H   UNL     1      -9.389  -3.105   6.397  0.00  0.00    +0.212 HD
ENDBRANCH  24  25
ENDBRANCH  15  24
ENDBRANCH  13  15
ENDBRANCH   1  14
BRANCH   7  27
ATOM     27  C   UNL     1      -1.497  -7.231   4.352  0.00  0.00    +0.057 C 
BRANCH  27  28
ATOM     28  C   UNL     1      -0.304  -8.125   4.145  0.00  0.00    -0.027 C 
ATOM     29  C   UNL     1       0.845  -7.840   3.512  0.00  0.00    -0.034 C 
ATOM     30  C   UNL     1       1.983  -8.801   3.393  0.00  0.00    +0.035 C 
ENDBRANCH  27  28
ENDBRANCH   7  27
TORSDOF 7
