REMARK  Name = 
REMARK  3 active torsions:
REMARK  status: ('A' for Active; 'I' for Inactive)
REMARK    1  A    between atoms: C_12  and  C_13
REMARK    2  A    between atoms: C_14  and  C_15
REMARK    3  A    between atoms: C_24  and  N_29
REMARK                            x       y       z     vdW  Elec       q    Type
REMARK                         _______ _______ _______ _____ _____    ______ ____
ROOT
ATOM      1  C   UNL     1       4.049  -1.888  -2.727  0.00  0.00    +0.049 C 
ATOM      2  N   UNL     1       3.913  -2.711  -3.719  0.00  0.00    -0.259 NA
ATOM      3  C   UNL     1       3.116  -2.596  -4.803  0.00  0.00    +0.121 C 
ATOM      4  C   UNL     1       2.266  -1.652  -5.182  0.00  0.00    +0.020 C 
ATOM      5  C   UNL     1       1.253  -1.857  -6.189  0.00  0.00    +0.031 C 
ATOM      6  C   UNL     1       0.490  -0.757  -6.145  0.00  0.00    +0.112 C 
ATOM      7  N   UNL     1       0.935   0.214  -5.273  0.00  0.00    -0.255 NA
ATOM      8  C   UNL     1       1.987  -0.300  -4.675  0.00  0.00    +0.078 C 
ATOM      9  C   UNL     1       2.784   0.338  -3.616  0.00  0.00    +0.008 C 
ATOM     10  C   UNL     1       2.663   1.678  -3.405  0.00  0.00    +0.030 C 
ATOM     11  C   UNL     1       3.001   2.178  -2.069  0.00  0.00    +0.019 C 
ATOM     12  C   UNL     1       2.971   1.344  -1.009  0.00  0.00    -0.024 C 
ATOM     13  C   UNL     1       2.835  -0.149  -1.238  0.00  0.00    +0.041 C 
ATOM     14  C   UNL     1       3.538  -0.452  -2.576  0.00  0.00    +0.075 C 
ENDROOT
BRANCH  10  15
ATOM     15  N   UNL     1       2.123   2.613  -4.255  0.00  0.00    -0.358 N 
ATOM     16  H   UNL     1       1.906   2.225  -5.175  0.00  0.00    +0.142 HD
ATOM     17  H   UNL     1       2.650   3.474  -4.314  0.00  0.00    +0.142 HD
ENDBRANCH  10  15
BRANCH   1  19
ATOM     18  C   UNL     1       5.079  -3.704  -1.470  0.00  0.00    +0.017 C 
ATOM     19  C   UNL     1       4.977  -2.376  -1.635  0.00  0.00    +0.025 C 
BRANCH  18  31
ATOM     20  C   UNL     1       6.625  -5.627  -1.655  0.00  0.00    +0.272 C 
ATOM     21  O   UNL     1       7.057  -5.184  -2.943  0.00  0.00    -0.494 OA
ATOM     22  C   UNL     1       8.044  -4.269  -3.161  0.00  0.00    +0.196 C 
ATOM     23  C   UNL     1       8.988  -3.619  -2.434  0.00  0.00    +0.019 C 
ATOM     24  C   UNL     1       9.931  -2.814  -3.251  0.00  0.00    +0.026 C 
ATOM     25  C   UNL     1      11.205  -2.763  -2.836  0.00  0.00    +0.072 C 
ATOM     26  N   UNL     1      11.594  -3.340  -1.643  0.00  0.00    -0.326 N 
ATOM     27  C   UNL     1      10.631  -3.627  -0.687  0.00  0.00    +0.080 C 
ATOM     28  C   UNL     1       9.299  -3.704  -0.967  0.00  0.00    +0.006 C 
ATOM     29  C   UNL     1       8.351  -3.662   0.138  0.00  0.00    +0.061 C 
ATOM     30  C   UNL     1       7.101  -3.890  -0.115  0.00  0.00    -0.112 C 
ATOM     31  C   UNL     1       6.152  -4.448  -0.813  0.00  0.00    +0.032 C 
ATOM     32  H   UNL     1      12.534  -3.141  -1.315  0.00  0.00    +0.151 HD
ENDBRANCH  18  31
ENDBRANCH   1  19
TORSDOF 3
