REMARK  Name = 
REMARK  16 active torsions:
REMARK  status: ('A' for Active; 'I' for Inactive)
REMARK    1  A    between atoms: C_5  and  C_6
REMARK    2  A    between atoms: C_6  and  C_7
REMARK    3  A    between atoms: C_6  and  N_9
REMARK    4  A    between atoms: C_7  and  C_8
REMARK    5  A    between atoms: N_9  and  C_10
REMARK    6  A    between atoms: C_10  and  C_11
REMARK    7  A    between atoms: C_10  and  C_21
REMARK    8  A    between atoms: C_12  and  C_13
REMARK    9  A    between atoms: C_14  and  C_15
REMARK   10  A    between atoms: C_16  and  C_17
REMARK   11  A    between atoms: C_18  and  C_19
REMARK   12  A    between atoms: C_21  and  N_22
REMARK   13  A    between atoms: N_22  and  C_23
REMARK   14  A    between atoms: C_23  and  C_24
REMARK   15  A    between atoms: C_24  and  C_25
REMARK   16  A    between atoms: C_25  and  N_26
REMARK                            x       y       z     vdW  Elec       q    Type
REMARK                         _______ _______ _______ _____ _____    ______ ____
ROOT
ATOM      1  C   UNL     1      -2.187   4.353   0.076  0.00  0.00    +0.091 C 
ENDROOT
BRANCH   1   2
ATOM      2  N   UNL     1      -1.200   3.260   0.168  0.00  0.00    -0.302 NA
ATOM      3  H   UNL     1      -0.542   3.378  -0.605  0.00  0.00    +0.123 HD
BRANCH   2   4
ATOM      4  C   UNL     1      -1.738   1.890   0.175  0.00  0.00    +0.084 C 
BRANCH   4   9
ATOM      5  C   UNL     1      -3.907   0.955  -0.901  0.00  0.00    +0.001 C 
ATOM      6  C   UNL     1      -4.550   1.031  -2.080  0.00  0.00    -0.022 C 
ATOM      7  C   UNL     1      -3.691   1.745  -3.079  0.00  0.00    +0.054 C 
ATOM      8  C   UNL     1      -2.455   2.013  -2.287  0.00  0.00    -0.018 C 
ATOM      9  C   UNL     1      -2.616   1.599  -1.016  0.00  0.00    -0.034 C 
ENDBRANCH   4   9
BRANCH   4  10
ATOM     10  C   UNL     1      -0.583   0.862   0.222  0.00  0.00    +0.020 C 
ATOM     11  C   UNL     1       0.371   1.032   1.401  0.00  0.00    +0.006 C 
ENDBRANCH   4  10
ENDBRANCH   2   4
ENDBRANCH   1   2
BRANCH   1  12
ATOM     12  C   UNL     1      -3.136   4.345   1.246  0.00  0.00    -0.007 C 
ATOM     13  C   UNL     1      -4.437   4.684   1.158  0.00  0.00    -0.003 C 
BRANCH  13  14
ATOM     14  C   UNL     1      -5.375   4.483   2.244  0.00  0.00    -0.000 C 
ATOM     15  C   UNL     1      -6.652   4.895   2.190  0.00  0.00    -0.000 C 
BRANCH  15  16
ATOM     16  C   UNL     1      -7.610   4.631   3.242  0.00  0.00    +0.000 C 
ATOM     17  C   UNL     1      -8.884   5.044   3.185  0.00  0.00    +0.000 C 
BRANCH  17  18
ATOM     18  C   UNL     1      -9.837   4.826   4.255  0.00  0.00    +0.001 C 
ATOM     19  C   UNL     1     -11.105   5.253   4.194  0.00  0.00    +0.019 C 
BRANCH  19  20
ATOM     20  C   UNL     1     -11.990   5.057   5.359  0.00  0.00    +0.101 C 
ATOM     21  N   UNL     1     -13.225   5.415   5.402  0.00  0.00    -0.307 NA
ATOM     22  H   UNL     1     -13.521   5.850   4.523  0.00  0.00    +0.186 HD
ENDBRANCH  19  20
ENDBRANCH  17  18
ENDBRANCH  15  16
ENDBRANCH  13  14
ENDBRANCH   1  12
BRANCH   1  23
ATOM     23  C   UNL     1      -1.426   5.713  -0.044  0.00  0.00    +0.103 C 
BRANCH  23  24
ATOM     24  N   UNL     1      -0.549   5.756  -1.239  0.00  0.00    -0.314 NA
ATOM     25  H   UNL     1      -1.122   5.636  -2.075  0.00  0.00    +0.122 HD
BRANCH  24  26
ATOM     26  C   UNL     1       0.166   7.034  -1.321  0.00  0.00    +0.082 C 
BRANCH  26  27
ATOM     27  C   UNL     1       1.067   7.051  -2.561  0.00  0.00    +0.030 C 
BRANCH  27  28
ATOM     28  C   UNL     1       1.841   8.366  -2.669  0.00  0.00    +0.079 C 
BRANCH  28  29
ATOM     29  N   UNL     1       2.687   8.361  -3.859  0.00  0.00    -0.330 NA
ATOM     30  H   UNL     1       3.343   7.581  -3.811  0.00  0.00    +0.118 HD
ATOM     31  H   UNL     1       3.254   9.207  -3.879  0.00  0.00    +0.118 HD
ENDBRANCH  28  29
ENDBRANCH  27  28
ENDBRANCH  26  27
ENDBRANCH  24  26
ENDBRANCH  23  24
ENDBRANCH   1  23
TORSDOF 15
