REMARK  Name = 
REMARK  8 active torsions:
REMARK  status: ('A' for Active; 'I' for Inactive)
REMARK    1  A    between atoms: N_10  and  N_11
REMARK    2  A    between atoms: N_11  and  C_12
REMARK    3  A    between atoms: C_13  and  C_14
REMARK    4  A    between atoms: C_15  and  C_16
REMARK    5  A    between atoms: C_16  and  C_17
REMARK    6  A    between atoms: C_17  and  N_19
REMARK    7  A    between atoms: C_20  and  C_21
REMARK    8  A    between atoms: C_22  and  C_23
REMARK                            x       y       z     vdW  Elec       q    Type
REMARK                         _______ _______ _______ _____ _____    ______ ____
ROOT
ATOM      1  C   UNL     1       0.770   0.094   2.500  0.00  0.00    +0.084 C 
ATOM      2  C   UNL     1       0.828   1.303   3.074  0.00  0.00    +0.016 C 
ENDROOT
BRANCH   1   3
ATOM      3  N   UNL     1      -0.240  -0.429   1.717  0.00  0.00    -0.285 N 
ATOM      4  H   UNL     1       0.175  -1.009   0.991  0.00  0.00    +0.166 HD
BRANCH   3  14
ATOM      5  C   UNL     1      -2.585  -0.143   2.103  0.00  0.00    +0.146 C 
ATOM      6  C   UNL     1      -2.631   0.893   0.943  0.00  0.00    +0.245 C 
ATOM      7  O   UNL     1      -2.803   0.333  -0.376  0.00  0.00    -0.498 OA
ATOM      8  C   UNL     1      -1.629  -0.211  -0.828  0.00  0.00    +0.183 C 
ATOM      9  C   UNL     1      -1.558  -1.502  -1.158  0.00  0.00    +0.011 C 
ATOM     10  C   UNL     1      -0.280  -2.288  -1.167  0.00  0.00    +0.030 C 
ATOM     11  C   UNL     1      -0.322  -3.490  -0.202  0.00  0.00    +0.005 C 
ATOM     12  C   UNL     1      -0.524  -3.295   1.323  0.00  0.00    +0.017 C 
ATOM     13  C   UNL     1      -1.680  -2.388   1.798  0.00  0.00    +0.105 C 
ATOM     14  N   UNL     1      -1.385  -1.014   2.297  0.00  0.00    -0.226 NA
ENDBRANCH   3  14
ENDBRANCH   1   3
BRANCH   2  15
ATOM     15  C   UNL     1       2.039   1.881   3.629  0.00  0.00    -0.003 C 
ATOM     16  C   UNL     1       3.149   2.108   2.905  0.00  0.00    -0.021 C 
BRANCH  16  17
ATOM     17  C   UNL     1       4.401   2.796   3.409  0.00  0.00    +0.082 C 
BRANCH  17  18
ATOM     18  C   UNL     1       5.707   1.994   3.322  0.00  0.00    +0.038 C 
ATOM     19  C   UNL     1       5.769   0.748   2.813  0.00  0.00    +0.034 C 
BRANCH  18  20
ATOM     20  N   UNL     1       6.828   2.698   3.727  0.00  0.00    -0.260 NA
ATOM     21  C   UNL     1       7.753   2.061   4.367  0.00  0.00    +0.111 C 
BRANCH  21  22
ATOM     22  C   UNL     1       8.984   2.727   4.840  0.00  0.00    +0.021 C 
ATOM     23  C   UNL     1       9.934   1.983   5.414  0.00  0.00    +0.020 C 
BRANCH  23  24
ATOM     24  C   UNL     1      11.170   2.615   5.908  0.00  0.00    +0.101 C 
ATOM     25  N   UNL     1      12.141   1.968   6.459  0.00  0.00    -0.307 NA
ATOM     26  H   UNL     1      11.947   0.965   6.512  0.00  0.00    +0.186 HD
ENDBRANCH  23  24
ENDBRANCH  21  22
ENDBRANCH  18  20
ENDBRANCH  17  18
ENDBRANCH  16  17
ENDBRANCH   2  15
TORSDOF 8
