REMARK  Name = 
REMARK  7 active torsions:
REMARK  status: ('A' for Active; 'I' for Inactive)
REMARK    1  A    between atoms: C_4  and  N_7
REMARK    2  A    between atoms: C_8  and  C_10
REMARK    3  A    between atoms: C_11  and  C_12
REMARK    4  A    between atoms: C_17  and  N_18
REMARK    5  A    between atoms: N_18  and  C_19
REMARK    6  A    between atoms: C_19  and  C_20
REMARK    7  A    between atoms: C_21  and  C_22
REMARK                            x       y       z     vdW  Elec       q    Type
REMARK                         _______ _______ _______ _____ _____    ______ ____
ROOT
ATOM      1  C   UNL     1      -3.325   4.190   0.744  0.00  0.00    +0.044 C 
ATOM      2  C   UNL     1      -3.385   5.147  -0.193  0.00  0.00    +0.013 C 
ENDROOT
BRANCH   2   3
ATOM      3  C   UNL     1      -3.690   6.583   0.003  0.00  0.00    -0.004 A 
ATOM      4  C   UNL     1      -2.983   7.461  -0.847  0.00  0.00    +0.010 A 
ATOM      5  C   UNL     1      -3.282   8.821  -0.906  0.00  0.00    +0.001 A 
ATOM      6  C   UNL     1      -4.280   9.334  -0.094  0.00  0.00    +0.002 A 
ATOM      7  C   UNL     1      -4.968   8.489   0.778  0.00  0.00    +0.023 A 
ATOM      8  C   UNL     1      -4.733   7.098   0.819  0.00  0.00    +0.035 A 
BRANCH   8   9
ATOM      9  N   UNL     1      -5.452   6.276   1.720  0.00  0.00    -0.340 N 
ATOM     10  H   UNL     1      -5.405   5.302   1.431  0.00  0.00    +0.146 HD
BRANCH   9  11
ATOM     11  C   UNL     1      -6.831   6.647   1.993  0.00  0.00    +0.128 C 
BRANCH  11  12
ATOM     12  C   UNL     1      -7.433   5.614   2.896  0.00  0.00    -0.013 C 
ATOM     13  C   UNL     1      -8.491   4.859   2.562  0.00  0.00    -0.033 C 
ATOM     14  C   UNL     1      -9.172   3.904   3.486  0.00  0.00    +0.035 C 
ENDBRANCH  11  12
ENDBRANCH   9  11
ENDBRANCH   8   9
ENDBRANCH   2   3
BRANCH   1  16
ATOM     15  N   UNL     1      -3.768   1.928   1.179  0.00  0.00    -0.230 NA
ATOM     16  C   UNL     1      -3.178   2.747   0.355  0.00  0.00    +0.117 C 
ATOM     17  N   UNL     1      -2.467   2.412  -0.772  0.00  0.00    -0.343 N 
ATOM     18  H   UNL     1      -2.102   1.468  -0.772  0.00  0.00    +0.144 HD
ATOM     19  H   UNL     1      -1.774   3.088  -1.071  0.00  0.00    +0.144 HD
BRANCH  15  23
ATOM     20  C   UNL     1      -4.086  -2.263   0.928  0.00  0.00    +0.256 C 
ATOM     21  O   UNL     1      -4.139  -1.466  -0.272  0.00  0.00    -0.493 OA
ATOM     22  C   UNL     1      -4.032  -0.101  -0.143  0.00  0.00    +0.215 C 
ATOM     23  C   UNL     1      -3.816   0.574   0.997  0.00  0.00    +0.100 C 
ATOM     24  C   UNL     1      -3.773  -0.173   2.230  0.00  0.00    +0.030 C 
ATOM     25  C   UNL     1      -3.906  -1.502   2.211  0.00  0.00    +0.016 C 
ENDBRANCH  15  23
ENDBRANCH   1  16
TORSDOF 6
