REMARK  Name = 
REMARK  0 active torsions:
REMARK  status: ('A' for Active; 'I' for Inactive)
REMARK                            x       y       z     vdW  Elec       q    Type
REMARK                         _______ _______ _______ _____ _____    ______ ____
ROOT
ATOM      1  C   UNL     1      -1.789   0.185   0.184  0.00  0.00    +0.008 C 
ATOM      2  C   UNL     1      -1.743  -1.171   0.181  0.00  0.00    +0.001 C 
ATOM      3  C   UNL     1      -0.347  -1.638   0.157  0.00  0.00    +0.008 C 
ATOM      4  C   UNL     1       0.439  -0.563   0.168  0.00  0.00    -0.018 C 
ATOM      5  C   UNL     1       1.802  -0.153   0.185  0.00  0.00    +0.008 C 
ATOM      6  C   UNL     1       1.761   1.198   0.180  0.00  0.00    +0.001 C 
ATOM      7  C   UNL     1       0.368   1.670   0.157  0.00  0.00    +0.008 C 
ATOM      8  C   UNL     1      -0.422   0.595   0.168  0.00  0.00    -0.018 C 
ENDROOT
TORSDOF 0
