REMARK  Name = 
REMARK  1 active torsions:
REMARK  status: ('A' for Active; 'I' for Inactive)
REMARK    1  A    between atoms: C_5  and  C_6
REMARK                            x       y       z     vdW  Elec       q    Type
REMARK                         _______ _______ _______ _____ _____    ______ ____
ROOT
ATOM      1  C   UNL     1       4.721  -0.063  -0.398  0.00  0.00    +0.125 C 
ATOM      2  C   UNL     1       6.314   0.163  -0.107  0.00  0.00    -0.010 C 
ATOM      3  C   UNL     1       7.288   0.847   0.543  0.00  0.00    -0.003 C 
ATOM      4  C   UNL     1       8.327   1.665   1.307  0.00  0.00    +0.003 C 
ATOM      5  C   UNL     1       8.226   2.625   2.292  0.00  0.00    -0.051 C 
ATOM      6  C   UNL     1       9.340   3.357   3.059  0.00  0.00    +0.044 C 
ATOM      7  C   UNL     1       6.947   3.167   2.777  0.00  0.00    -0.001 C 
ATOM      8  C   UNL     1       5.890   2.366   2.757  0.00  0.00    -0.025 C 
ATOM      9  C   UNL     1       4.416   2.607   2.628  0.00  0.00    +0.043 C 
ATOM     10  C   UNL     1       4.125   1.603   1.538  0.00  0.00    +0.102 C 
ATOM     11  N   UNL     1       2.890   1.116   1.021  0.00  0.00    -0.256 NA
ATOM     12  N   UNL     1       3.305   0.054   0.120  0.00  0.00    -0.253 NA
ATOM     13  H   UNL     1       2.359   1.844   0.537  0.00  0.00    +0.141 HD
ATOM     14  H   UNL     1       2.914  -0.855   0.394  0.00  0.00    +0.141 HD
ENDROOT
TORSDOF 0
