REMARK  Name = 
REMARK  16 active torsions:
REMARK  status: ('A' for Active; 'I' for Inactive)
REMARK    1  A    between atoms: C_1  and  C_2
REMARK    2  A    between atoms: C_2  and  C_3
REMARK    3  A    between atoms: C_2  and  C_4
REMARK    4  A    between atoms: C_2  and  C_21
REMARK    5  A    between atoms: C_4  and  C_5
REMARK    6  A    between atoms: C_6  and  C_7
REMARK    7  A    between atoms: C_6  and  C_8
REMARK    8  A    between atoms: C_8  and  C_9
REMARK    9  A    between atoms: C_9  and  C_10
REMARK   10  A    between atoms: C_11  and  C_12
REMARK   11  A    between atoms: C_12  and  C_13
REMARK   12  A    between atoms: C_12  and  C_14
REMARK   13  A    between atoms: C_14  and  C_15
REMARK   14  A    between atoms: C_22  and  C_23
REMARK   15  A    between atoms: C_23  and  C_24
REMARK   16  A    between atoms: C_24  and  C_25
REMARK                            x       y       z     vdW  Elec       q    Type
REMARK                         _______ _______ _______ _____ _____    ______ ____
ROOT
ATOM      1  C   UNL     1       2.099   2.607  -0.211  0.00  0.00    -0.027 C 
ATOM      2  C   UNL     1       2.688   3.828  -0.147  0.00  0.00    -0.076 C 
ATOM      3  C   UNL     1       3.660   4.258   0.926  0.00  0.00    +0.039 C 
ENDROOT
BRANCH   1   4
ATOM      4  C   UNL     1       2.277   1.379   0.676  0.00  0.00    +0.037 C 
BRANCH   4   6
ATOM      5  C   UNL     1       4.414   0.931  -0.387  0.00  0.00    +0.015 C 
ATOM      6  C   UNL     1       3.084   0.253  -0.056  0.00  0.00    -0.013 C 
ATOM      7  C   UNL     1       3.486  -0.887   0.915  0.00  0.00    +0.015 C 
BRANCH   6   8
ATOM      8  C   UNL     1       2.321  -0.255  -1.318  0.00  0.00    -0.025 C 
ATOM      9  C   UNL     1       2.720  -1.120  -2.276  0.00  0.00    -0.030 C 
BRANCH   9  10
ATOM     10  C   UNL     1       2.008  -1.398  -3.608  0.00  0.00    +0.031 C 
BRANCH  10  11
ATOM     11  C   UNL     1       2.964  -1.728  -4.777  0.00  0.00    +0.030 C 
BRANCH  11  12
ATOM     12  C   UNL     1       2.332  -2.396  -5.971  0.00  0.00    -0.034 C 
ATOM     13  C   UNL     1       2.674  -3.620  -6.416  0.00  0.00    +0.004 C 
ENDBRANCH  11  12
ENDBRANCH  10  11
ENDBRANCH   9  10
ENDBRANCH   6   8
ENDBRANCH   4   6
ENDBRANCH   1   4
BRANCH   2  14
ATOM     14  C   UNL     1       2.399   4.815  -1.260  0.00  0.00    +0.034 C 
BRANCH  14  15
ATOM     15  C   UNL     1       3.441   5.905  -1.574  0.00  0.00    +0.031 C 
BRANCH  15  16
ATOM     16  C   UNL     1       4.840   5.552  -2.023  0.00  0.00    -0.030 C 
ATOM     17  C   UNL     1       5.329   4.336  -2.325  0.00  0.00    -0.028 C 
BRANCH  17  18
ATOM     18  C   UNL     1       6.768   3.981  -2.701  0.00  0.00    +0.013 C 
ATOM     19  C   UNL     1       7.707   5.192  -2.718  0.00  0.00    +0.012 C 
BRANCH  18  20
ATOM     20  C   UNL     1       7.376   2.886  -1.770  0.00  0.00    +0.042 C 
BRANCH  20  21
ATOM     21  C   UNL     1       7.089   1.427  -2.087  0.00  0.00    -0.047 A 
ATOM     22  C   UNL     1       6.214   1.044  -3.103  0.00  0.00    +0.003 A 
ATOM     23  C   UNL     1       5.814  -0.283  -3.219  0.00  0.00    +0.000 A 
ATOM     24  C   UNL     1       6.279  -1.262  -2.343  0.00  0.00    +0.000 A 
ATOM     25  C   UNL     1       7.195  -0.913  -1.357  0.00  0.00    +0.000 A 
ATOM     26  C   UNL     1       7.611   0.423  -1.241  0.00  0.00    +0.003 A 
ENDBRANCH  20  21
ENDBRANCH  18  20
ENDBRANCH  17  18
ENDBRANCH  15  16
ENDBRANCH  14  15
ENDBRANCH   2  14
TORSDOF 12
