REMARK  Name = 
REMARK  11 active torsions:
REMARK  status: ('A' for Active; 'I' for Inactive)
REMARK    1  A    between atoms: C_1  and  C_2
REMARK    2  A    between atoms: C_2  and  C_3
REMARK    3  A    between atoms: C_5  and  C_6
REMARK    4  A    between atoms: C_7  and  C_8
REMARK    5  A    between atoms: C_8  and  C_10
REMARK    6  A    between atoms: N_12  and  C_13
REMARK    7  A    between atoms: C_14  and  C_15
REMARK    8  A    between atoms: C_16  and  C_17
REMARK    9  A    between atoms: C_18  and  C_19
REMARK   10  A    between atoms: C_19  and  C_21
REMARK   11  A    between atoms: C_21  and  C_22
REMARK                            x       y       z     vdW  Elec       q    Type
REMARK                         _______ _______ _______ _____ _____    ______ ____
ROOT
ATOM      1  C   UNL     1       9.308  -2.590  -4.827  0.00  0.00    +0.079 C 
ATOM      2  C   UNL     1       9.772  -3.173  -5.896  0.00  0.00    -0.012 C 
ATOM      3  N   UNL     1      10.305  -3.630  -6.844  0.00  0.00    -0.213 NA
ENDROOT
BRANCH   1   4
ATOM      4  C   UNL     1       7.892  -2.428  -4.491  0.00  0.00    -0.023 C 
ATOM      5  C   UNL     1       7.612  -1.724  -3.373  0.00  0.00    +0.017 C 
BRANCH   4   7
ATOM      6  C   UNL     1       5.595  -3.312  -4.890  0.00  0.00    +0.009 C 
ATOM      7  C   UNL     1       6.794  -2.906  -5.341  0.00  0.00    +0.008 C 
BRANCH   6  10
ATOM      8  C   UNL     1       2.278  -4.577  -4.663  0.00  0.00    +0.024 C 
ATOM      9  C   UNL     1       3.402  -4.204  -5.208  0.00  0.00    -0.124 C 
ATOM     10  C   UNL     1       4.534  -3.824  -5.726  0.00  0.00    +0.051 C 
BRANCH   8  12
ATOM     11  C   UNL     1       0.643  -6.445  -5.007  0.00  0.00    +0.009 C 
ATOM     12  C   UNL     1       1.067  -5.041  -5.416  0.00  0.00    +0.032 C 
ENDBRANCH   8  12
ENDBRANCH   6  10
ENDBRANCH   4   7
ENDBRANCH   1   4
BRANCH   3  13
ATOM     13  C   UNL     1       9.496  -4.422  -7.617  0.00  0.00    +0.121 C 
ATOM     14  C   UNL     1       9.721  -4.607  -8.931  0.00  0.00    +0.020 C 
BRANCH  14  15
ATOM     15  C   UNL     1       8.866  -5.420  -9.776  0.00  0.00    +0.001 C 
ATOM     16  C   UNL     1       9.037  -5.613 -11.097  0.00  0.00    +0.000 C 
BRANCH  16  17
ATOM     17  C   UNL     1       8.122  -6.429 -11.880  0.00  0.00    +0.000 C 
ATOM     18  C   UNL     1       8.214  -6.643 -13.203  0.00  0.00    +0.003 C 
BRANCH  18  19
ATOM     19  C   UNL     1       7.262  -7.448 -13.959  0.00  0.00    -0.055 C 
ATOM     20  C   UNL     1       7.064  -8.749 -13.680  0.00  0.00    +0.012 C 
BRANCH  19  21
ATOM     21  C   UNL     1       6.567  -6.789 -15.134  0.00  0.00    +0.031 C 
ATOM     22  C   UNL     1       5.681  -5.611 -14.743  0.00  0.00    +0.009 C 
ENDBRANCH  19  21
ENDBRANCH  18  19
ENDBRANCH  16  17
ENDBRANCH  14  15
ENDBRANCH   3  13
TORSDOF 9
