REMARK  Name = 
REMARK  13 active torsions:
REMARK  status: ('A' for Active; 'I' for Inactive)
REMARK    1  A    between atoms: C_3  and  O_14
REMARK    2  A    between atoms: C_5  and  C_6
REMARK    3  A    between atoms: C_6  and  C_7
REMARK    4  A    between atoms: O_14  and  C_15
REMARK    5  A    between atoms: N_18  and  C_19
REMARK    6  A    between atoms: C_19  and  C_20
REMARK    7  A    between atoms: C_21  and  C_22
REMARK    8  A    between atoms: C_24  and  C_25
REMARK    9  A    between atoms: C_25  and  C_26
REMARK   10  A    between atoms: C_26  and  C_27
REMARK   11  A    between atoms: C_27  and  C_28
REMARK   12  A    between atoms: C_28  and  C_29
REMARK   13  A    between atoms: C_29  and  C_30
REMARK                            x       y       z     vdW  Elec       q    Type
REMARK                         _______ _______ _______ _____ _____    ______ ____
ROOT
ATOM      1  C   UNL     1      -2.207  -2.474   1.651  0.00  0.00    +0.249 C 
ATOM      2  C   UNL     1      -2.652  -2.949   2.778  0.00  0.00    -0.012 C 
ATOM      3  C   UNL     1      -3.097  -3.453   3.777  0.00  0.00    +0.038 C 
ATOM      4  N   UNL     1      -3.515  -4.016   4.730  0.00  0.00    -0.221 NA
ENDROOT
BRANCH   1   5
ATOM      5  O   UNL     1      -1.667  -1.217   1.628  0.00  0.00    -0.488 OA
BRANCH   5   8
ATOM      6  C   UNL     1       0.358   0.351  -0.402  0.00  0.00    +0.007 C 
ATOM      7  C   UNL     1      -0.534  -0.878  -0.544  0.00  0.00    +0.045 C 
ATOM      8  C   UNL     1      -1.758  -0.590   0.335  0.00  0.00    +0.174 C 
ATOM      9  C   UNL     1      -1.761   0.934   0.549  0.00  0.00    +0.048 C 
ATOM     10  C   UNL     1      -0.625   1.520  -0.305  0.00  0.00    -0.004 C 
BRANCH  10  11
ATOM     11  C   UNL     1      -1.058   2.014  -1.699  0.00  0.00    +0.031 C 
BRANCH  11  12
ATOM     12  C   UNL     1      -2.103   3.101  -1.653  0.00  0.00    -0.026 C 
ATOM     13  C   UNL     1      -3.355   3.022  -2.161  0.00  0.00    -0.053 C 
ATOM     14  C   UNL     1      -4.288   4.207  -2.022  0.00  0.00    +0.132 C 
ATOM     15  N   UNL     1      -5.573   4.011  -2.662  0.00  0.00    -0.346 N 
ATOM     16  C   UNL     1      -6.039   2.829  -3.145  0.00  0.00    +0.063 C 
ATOM     17  C   UNL     1      -5.270   1.747  -3.256  0.00  0.00    -0.008 C 
ATOM     18  C   UNL     1      -3.840   1.756  -2.839  0.00  0.00    +0.060 C 
ATOM     19  H   UNL     1      -6.272   4.724  -2.476  0.00  0.00    +0.146 HD
ENDBRANCH  11  12
ENDBRANCH  10  11
ENDBRANCH   5   8
ENDBRANCH   1   5
BRANCH   4  20
ATOM     20  C   UNL     1      -4.681  -3.377   5.373  0.00  0.00    +0.241 C 
BRANCH  20  21
ATOM     21  C   UNL     1      -5.457  -4.438   6.046  0.00  0.00    -0.077 C 
ATOM     22  C   UNL     1      -6.074  -5.372   6.493  0.00  0.00    -0.088 C 
BRANCH  22  23
ATOM     23  C   UNL     1      -6.593  -6.677   6.822  0.00  0.00    +0.112 C 
ATOM     24  C   UNL     1      -6.773  -7.497   5.656  0.00  0.00    -0.006 C 
ATOM     25  C   UNL     1      -7.791  -7.497   6.511  0.00  0.00    -0.054 C 
BRANCH  25  26
ATOM     26  C   UNL     1      -8.174  -8.847   7.067  0.00  0.00    +0.032 C 
BRANCH  26  27
ATOM     27  C   UNL     1      -9.632  -9.237   6.817  0.00  0.00    +0.004 C 
BRANCH  27  28
ATOM     28  C   UNL     1      -9.906 -10.666   7.311  0.00  0.00    +0.000 C 
BRANCH  28  29
ATOM     29  C   UNL     1     -11.367 -11.057   7.092  0.00  0.00    -0.000 C 
BRANCH  29  30
ATOM     30  C   UNL     1     -11.654 -12.475   7.587  0.00  0.00    -0.003 C 
ATOM     31  C   UNL     1     -13.113 -12.846   7.372  0.00  0.00    +0.004 C 
ENDBRANCH  29  30
ENDBRANCH  28  29
ENDBRANCH  27  28
ENDBRANCH  26  27
ENDBRANCH  25  26
ENDBRANCH  22  23
ENDBRANCH  20  21
ENDBRANCH   4  20
TORSDOF 12
