REMARK  Name = 
REMARK  8 active torsions:
REMARK  status: ('A' for Active; 'I' for Inactive)
REMARK    1  A    between atoms: C_2  and  O_3
REMARK    2  A    between atoms: C_2  and  C_4
REMARK    3  A    between atoms: C_4  and  C_5
REMARK    4  A    between atoms: C_13  and  N_14
REMARK    5  A    between atoms: N_14  and  C_15
REMARK    6  A    between atoms: C_16  and  C_17
REMARK    7  A    between atoms: C_18  and  C_19
REMARK    8  A    between atoms: C_24  and  C_25
REMARK                            x       y       z     vdW  Elec       q    Type
REMARK                         _______ _______ _______ _____ _____    ______ ____
ROOT
ATOM      1  C   UNL     1       4.543   0.671   1.107  0.00  0.00    +0.080 C 
ATOM      2  C   UNL     1       5.595  -0.408   1.352  0.00  0.00    +0.106 C 
ATOM      3  N   UNL     1       6.318  -0.149   2.595  0.00  0.00    -0.273 NA
ATOM      4  C   UNL     1       7.104   1.055   2.929  0.00  0.00    +0.134 C 
ATOM      5  C   UNL     1       5.630   0.962   3.212  0.00  0.00    +0.151 C 
ATOM      6  N   UNL     1       4.656   1.566   2.277  0.00  0.00    -0.277 NA
ATOM      7  C   UNL     1       5.033   2.917   1.871  0.00  0.00    +0.115 C 
ATOM      8  C   UNL     1       6.509   3.152   1.737  0.00  0.00    +0.009 C 
ATOM      9  C   UNL     1       7.457   2.316   2.199  0.00  0.00    +0.025 C 
ENDROOT
BRANCH   9  10
ATOM     10  N   UNL     1       8.783   2.774   2.244  0.00  0.00    -0.323 N 
ATOM     11  H   UNL     1       8.893   3.758   1.999  0.00  0.00    +0.151 HD
BRANCH  10  12
ATOM     12  C   UNL     1       9.896   2.236   2.859  0.00  0.00    +0.072 C 
ATOM     13  C   UNL     1      11.058   2.821   3.172  0.00  0.00    +0.015 C 
BRANCH  13  14
ATOM     14  C   UNL     1      12.126   2.071   3.836  0.00  0.00    +0.002 C 
ATOM     15  C   UNL     1      13.345   2.543   4.139  0.00  0.00    +0.008 C 
BRANCH  15  16
ATOM     16  C   UNL     1      14.329   1.666   4.794  0.00  0.00    -0.019 A 
ATOM     17  C   UNL     1      14.356   1.612   6.189  0.00  0.00    +0.028 A 
ATOM     18  C   UNL     1      15.248   0.751   6.806  0.00  0.00    +0.111 A 
ATOM     19  N   UNL     1      16.099  -0.050   6.134  0.00  0.00    -0.263 NA
ATOM     20  C   UNL     1      16.056   0.014   4.786  0.00  0.00    +0.114 A 
ATOM     21  C   UNL     1      15.203   0.849   4.060  0.00  0.00    -0.025 A 
ATOM     22  C   UNL     1      15.240   0.832   2.564  0.00  0.00    +0.046 C 
ENDBRANCH  15  16
ENDBRANCH  13  14
ENDBRANCH  10  12
ENDBRANCH   9  10
BRANCH   1  23
ATOM     23  C   UNL     1       3.054   0.259   1.110  0.00  0.00    +0.093 C 
BRANCH  23  25
ATOM     24  C   UNL     1       1.905  -1.887   0.582  0.00  0.00    +0.052 C 
ATOM     25  C   UNL     1       2.572  -0.804   0.161  0.00  0.00    +0.089 C 
BRANCH  25  26
ATOM     26  O   UNL     1       2.725  -0.524  -1.178  0.00  0.00    -0.512 OA
ATOM     27  H   UNL     1       2.201  -1.168  -1.687  0.00  0.00    +0.292 HD
ENDBRANCH  25  26
ENDBRANCH  23  25
ENDBRANCH   1  23
TORSDOF 7
