REMARK  Name = 
REMARK  7 active torsions:
REMARK  status: ('A' for Active; 'I' for Inactive)
REMARK    1  A    between atoms: C_2  and  C_3
REMARK    2  A    between atoms: C_3  and  C_4
REMARK    3  A    between atoms: C_4  and  C_5
REMARK    4  A    between atoms: C_5  and  C_6
REMARK    5  A    between atoms: C_6  and  C_7
REMARK    6  A    between atoms: N_8  and  N_9
REMARK    7  A    between atoms: C_10  and  C_11
REMARK                            x       y       z     vdW  Elec       q    Type
REMARK                         _______ _______ _______ _____ _____    ______ ____
ROOT
ATOM      1  C   UNL     1       3.230   1.422  -3.270  0.00  0.00    +0.005 C 
ENDROOT
BRANCH   1   2
ATOM      2  C   UNL     1       2.131   0.963  -2.304  0.00  0.00    +0.032 C 
BRANCH   2   4
ATOM      3  C   UNL     1       2.031  -1.204  -1.032  0.00  0.00    +0.075 C 
ATOM      4  C   UNL     1       2.670   0.349  -1.059  0.00  0.00    -0.053 C 
ATOM      5  C   UNL     1       2.856  -0.572  -0.159  0.00  0.00    +0.006 C 
BRANCH   5   6
ATOM      6  C   UNL     1       3.472  -0.808   1.054  0.00  0.00    -0.074 C 
ATOM      7  C   UNL     1       3.976  -1.044   2.118  0.00  0.00    +0.009 C 
ENDBRANCH   5   6
ENDBRANCH   2   4
ENDBRANCH   1   2
BRANCH   1   8
ATOM      8  C   UNL     1       2.593   2.014  -4.529  0.00  0.00    +0.006 C 
BRANCH   8   9
ATOM      9  C   UNL     1       3.613   2.490  -5.557  0.00  0.00    +0.049 C 
BRANCH   9  10
ATOM     10  C   UNL     1       2.862   3.023  -6.750  0.00  0.00    +0.102 C 
ATOM     11  N   UNL     1       3.012   2.493  -7.921  0.00  0.00    -0.202 NA
BRANCH  11  12
ATOM     12  N   UNL     1       2.223   3.035  -8.876  0.00  0.00    -0.283 N 
ATOM     13  H   UNL     1       2.577   2.793  -9.805  0.00  0.00    +0.164 HD
ATOM     14  H   UNL     1       2.150   4.051  -8.834  0.00  0.00    +0.164 HD
ENDBRANCH  11  12
ENDBRANCH   9  10
ENDBRANCH   8   9
ENDBRANCH   1   8
TORSDOF 7
