REMARK  Name = 
REMARK  8 active torsions:
REMARK  status: ('A' for Active; 'I' for Inactive)
REMARK    1  A    between atoms: C_1  and  C_2
REMARK    2  A    between atoms: N_4  and  C_5
REMARK    3  A    between atoms: N_4  and  C_10
REMARK    4  A    between atoms: C_5  and  C_6
REMARK    5  A    between atoms: C_7  and  C_8
REMARK    6  A    between atoms: C_8  and  C_9
REMARK    7  A    between atoms: C_10  and  C_11
REMARK    8  A    between atoms: C_14  and  C_17
REMARK                            x       y       z     vdW  Elec       q    Type
REMARK                         _______ _______ _______ _____ _____    ______ ____
ROOT
ATOM      1  C   UNL     1       3.619   0.831   0.802  0.00  0.00    +0.109 C 
ATOM      2  C   UNL     1       2.613   0.021   0.021  0.00  0.00    +0.213 C 
ATOM      3  O   UNL     1       1.409   0.206   0.208  0.00  0.00    -0.276 OA
ATOM      4  N   UNL     1       3.099  -0.924  -0.873  0.00  0.00    -0.294 N 
ENDROOT
BRANCH   4   5
ATOM      5  C   UNL     1       2.137  -1.777  -1.566  0.00  0.00    +0.135 C 
BRANCH   5   6
ATOM      6  C   UNL     1       1.880  -1.390  -2.999  0.00  0.00    -0.012 C 
ATOM      7  C   UNL     1       2.102  -0.230  -3.646  0.00  0.00    -0.030 C 
BRANCH   7   8
ATOM      8  C   UNL     1       1.866  -0.077  -5.128  0.00  0.00    +0.023 C 
ATOM      9  C   UNL     1       0.828   0.972  -5.498  0.00  0.00    +0.008 C 
ENDBRANCH   7   8
ENDBRANCH   5   6
ENDBRANCH   4   5
BRANCH   4  10
ATOM     10  C   UNL     1       4.523  -1.188  -1.098  0.00  0.00    +0.143 C 
BRANCH  10  11
ATOM     11  C   UNL     1       5.179  -2.225  -0.203  0.00  0.00    -0.030 A 
ATOM     12  C   UNL     1       4.488  -3.046   0.697  0.00  0.00    +0.005 A 
ATOM     13  C   UNL     1       5.160  -4.029   1.439  0.00  0.00    +0.003 A 
ATOM     14  C   UNL     1       6.539  -4.218   1.296  0.00  0.00    -0.050 A 
ATOM     15  C   UNL     1       7.242  -3.384   0.423  0.00  0.00    +0.003 A 
ATOM     16  C   UNL     1       6.570  -2.404  -0.316  0.00  0.00    +0.005 A 
ATOM     17  C   UNL     1       7.264  -5.290   2.056  0.00  0.00    +0.044 C 
ENDBRANCH  10  11
ENDBRANCH   4  10
TORSDOF 5
