REMARK  Name = 
REMARK  9 active torsions:
REMARK  status: ('A' for Active; 'I' for Inactive)
REMARK    1  A    between atoms: C_5  and  C_6
REMARK    2  A    between atoms: C_6  and  N_7
REMARK    3  A    between atoms: N_7  and  C_8
REMARK    4  A    between atoms: C_9  and  C_10
REMARK    5  A    between atoms: C_15  and  C_16
REMARK    6  A    between atoms: C_16  and  C_17
REMARK    7  A    between atoms: C_19  and  C_20
REMARK    8  A    between atoms: C_21  and  C_22
REMARK    9  A    between atoms: C_23  and  C_24
REMARK                            x       y       z     vdW  Elec       q    Type
REMARK                         _______ _______ _______ _____ _____    ______ ____
ROOT
ATOM      1  C   UNL     1      -4.685   2.700  -4.732  0.00  0.00    -0.020 A 
ATOM      2  C   UNL     1      -5.331   1.662  -5.436  0.00  0.00    +0.008 A 
ATOM      3  C   UNL     1      -5.901   1.877  -6.691  0.00  0.00    +0.001 A 
ATOM      4  C   UNL     1      -5.861   3.145  -7.254  0.00  0.00    +0.000 A 
ATOM      5  C   UNL     1      -5.210   4.179  -6.583  0.00  0.00    +0.004 A 
ATOM      6  C   UNL     1      -4.585   3.975  -5.333  0.00  0.00    -0.036 A 
ENDROOT
BRANCH   1   8
ATOM      7  C   UNL     1      -3.184   2.724  -2.695  0.00  0.00    +0.068 C 
ATOM      8  C   UNL     1      -4.298   2.373  -3.348  0.00  0.00    +0.023 C 
BRANCH   7   9
ATOM      9  N   UNL     1      -2.948   2.437  -1.367  0.00  0.00    -0.349 N 
ATOM     10  H   UNL     1      -2.893   3.307  -0.836  0.00  0.00    +0.146 HD
BRANCH   9  11
ATOM     11  C   UNL     1      -1.831   1.573  -0.985  0.00  0.00    +0.105 C 
BRANCH  11  16
ATOM     12  C   UNL     1      -0.436   2.495   1.017  0.00  0.00    +0.024 C 
ATOM     13  C   UNL     1      -0.367   1.312   1.988  0.00  0.00    -0.026 C 
ATOM     14  C   UNL     1       0.473   0.616   1.195  0.00  0.00    -0.026 C 
ATOM     15  C   UNL     1       0.507   1.708   0.128  0.00  0.00    +0.024 C 
ATOM     16  C   UNL     1      -0.694   2.393  -0.463  0.00  0.00    +0.021 C 
ENDBRANCH  11  16
ENDBRANCH   9  11
ENDBRANCH   7   9
ENDBRANCH   1   8
BRANCH   6  17
ATOM     17  C   UNL     1      -3.839   5.156  -4.740  0.00  0.00    +0.071 C 
BRANCH  17  18
ATOM     18  C   UNL     1      -4.574   5.929  -3.686  0.00  0.00    +0.029 C 
ATOM     19  C   UNL     1      -4.074   6.960  -3.062  0.00  0.00    -0.124 C 
ATOM     20  C   UNL     1      -3.587   7.995  -2.440  0.00  0.00    +0.051 C 
BRANCH  20  21
ATOM     21  C   UNL     1      -2.184   8.101  -2.106  0.00  0.00    +0.008 C 
ATOM     22  C   UNL     1      -1.675   9.130  -1.407  0.00  0.00    +0.001 C 
BRANCH  22  23
ATOM     23  C   UNL     1      -0.273   9.236  -1.060  0.00  0.00    +0.003 C 
ATOM     24  C   UNL     1       0.219  10.257  -0.348  0.00  0.00    +0.042 C 
BRANCH  24  25
ATOM     25  C   UNL     1       1.658  10.312  -0.020  0.00  0.00    +0.251 C 
ATOM     26  O   UNL     1       2.130  11.230   0.636  0.00  0.00    -0.296 OA
ENDBRANCH  24  25
ENDBRANCH  22  23
ENDBRANCH  20  21
ENDBRANCH  17  18
ENDBRANCH   6  17
TORSDOF 9
