REMARK  Name = 
REMARK  6 active torsions:
REMARK  status: ('A' for Active; 'I' for Inactive)
REMARK    1  A    between atoms: C_18  and  N_19
REMARK    2  A    between atoms: C_21  and  N_22
REMARK    3  A    between atoms: N_22  and  N_23
REMARK    4  A    between atoms: N_23  and  C_24
REMARK    5  A    between atoms: C_24  and  C_25
REMARK    6  A    between atoms: C_25  and  C_26
REMARK                            x       y       z     vdW  Elec       q    Type
REMARK                         _______ _______ _______ _____ _____    ______ ____
ROOT
ATOM      1  C   UNL     1       4.287  -2.607   2.869  0.00  0.00    +0.035 C 
ATOM      2  C   UNL     1       4.780  -3.346   4.099  0.00  0.00    +0.009 C 
ATOM      3  C   UNL     1       6.284  -3.642   4.188  0.00  0.00    +0.039 C 
ATOM      4  C   UNL     1       7.225  -3.117   3.102  0.00  0.00    -0.005 A 
ATOM      5  C   UNL     1       6.598  -2.398   2.005  0.00  0.00    +0.011 A 
ATOM      6  C   UNL     1       5.368  -1.879   2.113  0.00  0.00    -0.047 A 
ATOM      7  C   UNL     1       5.107  -0.506   1.674  0.00  0.00    +0.003 A 
ATOM      8  C   UNL     1       5.933   0.535   1.947  0.00  0.00    +0.000 A 
ATOM      9  C   UNL     1       7.174   0.394   2.704  0.00  0.00    +0.000 A 
ATOM     10  C   UNL     1       8.308  -0.078   2.151  0.00  0.00    +0.001 A 
ATOM     11  C   UNL     1       9.357  -0.755   2.894  0.00  0.00    +0.011 A 
ATOM     12  C   UNL     1       9.588  -2.101   2.936  0.00  0.00    +0.017 A 
ATOM     13  C   UNL     1      11.000  -2.416   3.199  0.00  0.00    +0.017 C 
ATOM     14  C   UNL     1      11.294  -3.285   4.169  0.00  0.00    -0.001 C 
ATOM     15  C   UNL     1      12.590  -3.970   4.477  0.00  0.00    +0.088 C 
ATOM     16  C   UNL     1       8.551  -3.074   3.372  0.00  0.00    +0.134 A 
ATOM     17  O   UNL     1       8.978  -4.064   4.295  0.00  0.00    -0.463 OA
ATOM     18  C   UNL     1      10.225  -3.968   4.963  0.00  0.00    +0.204 C 
ATOM     19  C   UNL     1      10.813  -5.342   5.162  0.00  0.00    +0.061 C 
ATOM     20  C   UNL     1      12.138  -5.349   4.925  0.00  0.00    +0.024 C 
ENDROOT
BRANCH  18  21
ATOM     21  N   UNL     1      10.074  -3.325   6.262  0.00  0.00    -0.286 NA
ATOM     22  H   UNL     1      10.073  -2.322   6.093  0.00  0.00    +0.122 HD
ATOM     23  H   UNL     1      10.906  -3.517   6.812  0.00  0.00    +0.122 HD
ENDBRANCH  18  21
BRANCH  20  24
ATOM     24  N   UNL     1      13.074  -6.343   5.025  0.00  0.00    -0.284 N 
ATOM     25  H   UNL     1      13.607  -6.297   5.899  0.00  0.00    +0.166 HD
BRANCH  24  26
ATOM     26  N   UNL     1      12.810  -7.652   4.591  0.00  0.00    -0.243 NA
ATOM     27  H   UNL     1      11.854  -7.729   4.228  0.00  0.00    +0.144 HD
BRANCH  26  28
ATOM     28  C   UNL     1      13.737  -7.938   3.477  0.00  0.00    +0.101 C 
BRANCH  28  29
ATOM     29  C   UNL     1      15.224  -7.875   3.859  0.00  0.00    +0.013 C 
ATOM     30  C   UNL     1      15.650  -8.967   4.829  0.00  0.00    +0.005 C 
ENDBRANCH  28  29
ENDBRANCH  26  28
ENDBRANCH  24  26
ENDBRANCH  20  24
TORSDOF 5
