REMARK  Name = 
REMARK  1 active torsions:
REMARK  status: ('A' for Active; 'I' for Inactive)
REMARK    1  A    between atoms: C_6  and  C_7
REMARK                            x       y       z     vdW  Elec       q    Type
REMARK                         _______ _______ _______ _____ _____    ______ ____
ROOT
ATOM      1  C   UNL     1      -0.793  -1.017  -0.192  0.00  0.00    +0.059 C 
ATOM      2  C   UNL     1       0.708  -0.986   0.028  0.00  0.00    +0.229 C 
ATOM      3  O   UNL     1       1.138   0.358  -0.248  0.00  0.00    -0.496 OA
ATOM      4  C   UNL     1      -0.003   1.141  -0.167  0.00  0.00    +0.101 C 
ATOM      5  C   UNL     1       0.024   2.417  -0.564  0.00  0.00    +0.053 C 
ATOM      6  C   UNL     1      -1.215   0.367   0.244  0.00  0.00    +0.120 C 
ENDROOT
BRANCH   6   7
ATOM      7  C   UNL     1      -1.404   0.491   1.744  0.00  0.00    +0.234 C 
ATOM      8  O   UNL     1      -1.465  -0.462   2.519  0.00  0.00    -0.300 OA
ENDBRANCH   6   7
TORSDOF 1
