REMARK  Name = 
REMARK  7 active torsions:
REMARK  status: ('A' for Active; 'I' for Inactive)
REMARK    1  A    between atoms: C_2  and  C_3
REMARK    2  A    between atoms: C_2  and  C_4
REMARK    3  A    between atoms: C_5  and  C_6
REMARK    4  A    between atoms: C_6  and  C_7
REMARK    5  A    between atoms: C_10  and  C_12
REMARK    6  A    between atoms: C_16  and  N_17
REMARK    7  A    between atoms: N_17  and  C_18
REMARK                            x       y       z     vdW  Elec       q    Type
REMARK                         _______ _______ _______ _____ _____    ______ ____
ROOT
ATOM      1  C   UNL     1       6.985   1.340   1.804  0.00  0.00    +0.096 C 
ATOM      2  N   UNL     1       7.333   0.594   0.796  0.00  0.00    -0.289 NA
ATOM      3  N   UNL     1       7.937   1.945   2.599  0.00  0.00    -0.287 N 
ATOM      4  C   UNL     1       9.312   1.912   2.491  0.00  0.00    +0.141 C 
ATOM      5  N   UNL     1       9.940   1.279   1.549  0.00  0.00    -0.284 NA
ATOM      6  H   UNL     1       6.506   0.233   0.306  0.00  0.00    +0.188 HD
ATOM      7  H   UNL     1       7.602   2.526   3.364  0.00  0.00    +0.155 HD
ATOM      8  H   UNL     1       9.198   0.816   0.983  0.00  0.00    +0.188 HD
ENDROOT
BRANCH   4   9
ATOM      9  C   UNL     1      10.153   2.664   3.496  0.00  0.00    +0.120 C 
ATOM     10  N   UNL     1       9.617   3.419   4.414  0.00  0.00    -0.186 NA
ATOM     11  N   UNL     1      10.664   3.918   5.124  0.00  0.00    -0.266 N 
ATOM     12  C   UNL     1      11.947   3.739   4.423  0.00  0.00    +0.151 C 
ATOM     13  C   UNL     1      11.659   2.613   3.439  0.00  0.00    +0.142 C 
ATOM     14  H   UNL     1      10.518   4.879   5.445  0.00  0.00    +0.168 HD
BRANCH  13  15
ATOM     15  N   UNL     1      12.214   1.350   3.915  0.00  0.00    -0.340 N 
ATOM     16  H   UNL     1      11.735   0.895   4.688  0.00  0.00    +0.146 HD
BRANCH  15  17
ATOM     17  C   UNL     1      13.395   0.809   3.497  0.00  0.00    +0.060 C 
ATOM     18  C   UNL     1      13.895  -0.373   3.858  0.00  0.00    +0.024 C 
ENDBRANCH  15  17
ENDBRANCH  13  15
ENDBRANCH   4   9
BRANCH   1  19
ATOM     19  C   UNL     1       5.497   1.554   2.099  0.00  0.00    +0.098 C 
BRANCH  19  21
ATOM     20  C   UNL     1       5.399   3.559   0.508  0.00  0.00    -0.001 C 
ATOM     21  C   UNL     1       4.835   2.687   1.362  0.00  0.00    -0.019 C 
BRANCH  20  23
ATOM     22  C   UNL     1       5.386   5.463  -0.998  0.00  0.00    +0.012 C 
ATOM     23  C   UNL     1       4.706   4.648  -0.173  0.00  0.00    -0.058 C 
ATOM     24  C   UNL     1       3.232   4.858   0.053  0.00  0.00    +0.043 C 
ENDBRANCH  20  23
ENDBRANCH  19  21
ENDBRANCH   1  19
TORSDOF 6
