REMARK  Name = 
REMARK  7 active torsions:
REMARK  status: ('A' for Active; 'I' for Inactive)
REMARK    1  A    between atoms: C_2  and  C_3
REMARK    2  A    between atoms: C_22  and  C_23
REMARK    3  A    between atoms: C_24  and  N_25
REMARK    4  A    between atoms: N_25  and  N_26
REMARK    5  A    between atoms: N_26  and  C_27
REMARK    6  A    between atoms: C_28  and  C_29
REMARK    7  A    between atoms: C_30  and  C_31
REMARK                            x       y       z     vdW  Elec       q    Type
REMARK                         _______ _______ _______ _____ _____    ______ ____
ROOT
ATOM      1  C   UNL     1       4.751   3.813   0.601  0.00  0.00    +0.029 C 
ATOM      2  C   UNL     1       3.897   3.626   1.921  0.00  0.00    +0.012 C 
ATOM      3  C   UNL     1       4.585   3.391   3.449  0.00  0.00    +0.012 C 
ATOM      4  C   UNL     1       2.615   4.528   1.409  0.00  0.00    -0.003 C 
ATOM      5  C   UNL     1       2.658   5.355   0.230  0.00  0.00    +0.026 C 
ATOM      6  C   UNL     1       4.037   5.173  -0.338  0.00  0.00    +0.056 C 
ATOM      7  C   UNL     1       3.676   6.116  -1.901  0.00  0.00    +0.015 C 
ATOM      8  C   UNL     1       3.053   7.439  -1.745  0.00  0.00    +0.042 C 
ATOM      9  N   UNL     1       2.678   6.992  -0.085  0.00  0.00    -0.278 N 
ATOM     10  C   UNL     1       3.911   7.237   0.736  0.00  0.00    +0.085 C 
ATOM     11  C   UNL     1       4.811   6.240   0.462  0.00  0.00    -0.018 C 
ATOM     12  C   UNL     1       6.172   6.279  -0.045  0.00  0.00    +0.002 C 
ATOM     13  C   UNL     1       6.504   7.459  -0.601  0.00  0.00    -0.022 C 
ATOM     14  C   UNL     1       6.543   7.610  -2.092  0.00  0.00    +0.054 C 
ATOM     15  C   UNL     1       5.745   8.860  -2.391  0.00  0.00    -0.023 C 
ATOM     16  C   UNL     1       5.825   9.782  -3.361  0.00  0.00    -0.004 C 
ATOM     17  C   UNL     1       4.856  10.886  -3.333  0.00  0.00    +0.001 C 
ATOM     18  C   UNL     1       4.420  11.502  -4.447  0.00  0.00    +0.017 C 
ATOM     19  C   UNL     1       2.420   9.039  -2.733  0.00  0.00    -0.010 C 
ATOM     20  C   UNL     1       1.140   9.015  -2.272  0.00  0.00    +0.019 C 
ATOM     21  C   UNL     1       2.360  10.473  -4.095  0.00  0.00    +0.026 C 
ATOM     22  C   UNL     1       2.922  11.974  -4.765  0.00  0.00    +0.027 C 
ENDROOT
BRANCH  22  23
ATOM     23  C   UNL     1       3.332  13.111  -5.687  0.00  0.00    -0.045 C 
ATOM     24  C   UNL     1       3.684  14.086  -6.478  0.00  0.00    +0.019 C 
BRANCH  24  25
ATOM     25  N   UNL     1       4.047  15.212  -7.336  0.00  0.00    -0.225 N 
ATOM     26  H   UNL     1       3.352  15.559  -7.987  0.00  0.00    +0.180 HD
BRANCH  25  27
ATOM     27  N   UNL     1       5.327  15.680  -7.365  0.00  0.00    -0.267 N 
ATOM     28  H   UNL     1       6.077  15.015  -7.168  0.00  0.00    +0.170 HD
BRANCH  27  29
ATOM     29  C   UNL     1       5.738  16.960  -7.695  0.00  0.00    +0.088 C 
ATOM     30  C   UNL     1       6.989  17.421  -7.773  0.00  0.00    +0.017 C 
BRANCH  30  31
ATOM     31  C   UNL     1       7.338  18.794  -8.121  0.00  0.00    +0.010 C 
ATOM     32  C   UNL     1       8.597  19.262  -8.211  0.00  0.00    +0.059 C 
BRANCH  32  33
ATOM     33  C   UNL     1       8.878  20.626  -8.549  0.00  0.00    -0.077 C 
ATOM     34  C   UNL     1       9.108  21.768  -8.819  0.00  0.00    +0.009 C 
ENDBRANCH  32  33
ENDBRANCH  30  31
ENDBRANCH  27  29
ENDBRANCH  25  27
ENDBRANCH  24  25
ENDBRANCH  22  23
TORSDOF 6
