REMARK  Name = 
REMARK  7 active torsions:
REMARK  status: ('A' for Active; 'I' for Inactive)
REMARK    1  A    between atoms: C_12  and  C_13
REMARK    2  A    between atoms: C_12  and  C_22
REMARK    3  A    between atoms: C_13  and  C_14
REMARK    4  A    between atoms: C_14  and  N_15
REMARK    5  A    between atoms: C_16  and  C_17
REMARK    6  A    between atoms: N_20  and  C_21
REMARK    7  A    between atoms: C_22  and  C_23
REMARK                            x       y       z     vdW  Elec       q    Type
REMARK                         _______ _______ _______ _____ _____    ______ ____
ROOT
ATOM      1  C   UNL     1       0.728  -3.370   4.555  0.00  0.00    -0.013 C 
ATOM      2  C   UNL     1       1.940  -3.985   4.526  0.00  0.00    -0.034 C 
ATOM      3  C   UNL     1       2.395  -4.378   5.927  0.00  0.00    +0.136 C 
ATOM      4  N   UNL     1       2.626  -3.171   6.726  0.00  0.00    -0.346 N 
ATOM      5  C   UNL     1       2.531  -1.850   6.352  0.00  0.00    +0.064 C 
ATOM      6  C   UNL     1       1.755  -1.253   5.436  0.00  0.00    -0.004 C 
ATOM      7  C   UNL     1       0.591  -1.818   4.602  0.00  0.00    +0.046 C 
ATOM      8  C   UNL     1       3.067  -3.677   3.602  0.00  0.00    +0.005 C 
ATOM      9  C   UNL     1       2.919  -3.221   2.333  0.00  0.00    +0.000 C 
ATOM     10  C   UNL     1       2.408  -1.832   2.274  0.00  0.00    -0.004 C 
ATOM     11  C   UNL     1       1.076  -1.711   2.095  0.00  0.00    -0.019 C 
ATOM     12  C   UNL     1       0.190  -1.113   3.205  0.00  0.00    +0.004 C 
ATOM     13  H   UNL     1       3.036  -3.329   7.644  0.00  0.00    +0.146 HD
ENDROOT
BRANCH  12  14
ATOM     14  C   UNL     1      -1.333  -1.444   2.860  0.00  0.00    +0.035 C 
BRANCH  14  15
ATOM     15  C   UNL     1      -1.760  -2.914   2.865  0.00  0.00    +0.144 C 
BRANCH  15  16
ATOM     16  N   UNL     1      -3.186  -3.061   2.522  0.00  0.00    -0.273 NA
ATOM     17  C   UNL     1      -3.661  -4.273   2.539  0.00  0.00    +0.091 C 
ATOM     18  C   UNL     1      -2.833  -5.517   2.839  0.00  0.00    +0.083 C 
ATOM     19  N   UNL     1      -4.994  -4.474   2.270  0.00  0.00    -0.295 N 
ATOM     20  C   UNL     1      -5.772  -5.591   2.204  0.00  0.00    +0.180 C 
ATOM     21  N   UNL     1      -7.034  -5.604   1.951  0.00  0.00    -0.280 NA
ATOM     22  C   UNL     1      -7.580  -6.962   1.941  0.00  0.00    +0.171 C 
ATOM     23  H   UNL     1      -5.498  -3.614   2.098  0.00  0.00    +0.154 HD
ENDBRANCH  15  16
ENDBRANCH  14  15
ENDBRANCH  12  14
BRANCH  12  24
ATOM     24  C   UNL     1       0.362   0.467   3.204  0.00  0.00    +0.050 C 
BRANCH  24  25
ATOM     25  C   UNL     1      -0.481   1.228   4.214  0.00  0.00    -0.011 A 
ATOM     26  C   UNL     1       0.008   1.563   5.483  0.00  0.00    +0.006 A 
ATOM     27  C   UNL     1      -0.861   1.921   6.514  0.00  0.00    +0.000 A 
ATOM     28  C   UNL     1      -2.224   2.041   6.261  0.00  0.00    +0.003 A 
ATOM     29  C   UNL     1      -2.698   1.886   4.963  0.00  0.00    +0.038 A 
ATOM     30  C   UNL     1      -1.823   1.506   3.949  0.00  0.00    +0.127 A 
ATOM     31  F   UNL     1      -2.313   1.335   2.713  0.00  0.00    -0.205 F 
ENDBRANCH  24  25
ENDBRANCH  12  24
TORSDOF 5
