REMARK  Name = 
REMARK  12 active torsions:
REMARK  status: ('A' for Active; 'I' for Inactive)
REMARK    1  A    between atoms: C_1  and  C_2
REMARK    2  A    between atoms: C_6  and  C_7
REMARK    3  A    between atoms: C_7  and  C_8
REMARK    4  A    between atoms: C_8  and  C_9
REMARK    5  A    between atoms: C_9  and  N_10
REMARK    6  A    between atoms: N_10  and  C_11
REMARK    7  A    between atoms: C_14  and  C_25
REMARK    8  A    between atoms: C_16  and  C_17
REMARK    9  A    between atoms: C_18  and  C_19
REMARK   10  A    between atoms: C_20  and  C_21
REMARK   11  A    between atoms: N_22  and  C_23
REMARK   12  A    between atoms: C_25  and  N_26
REMARK                            x       y       z     vdW  Elec       q    Type
REMARK                         _______ _______ _______ _____ _____    ______ ____
ROOT
ATOM      1  C   UNL     1       8.817   1.184  -4.240  0.00  0.00    +0.011 C 
ATOM      2  C   UNL     1       9.280   2.220  -4.961  0.00  0.00    +0.019 C 
ATOM      3  C   UNL     1      10.689   2.403  -5.233  0.00  0.00    +0.002 C 
ATOM      4  C   UNL     1      11.579   1.409  -5.058  0.00  0.00    -0.055 C 
ATOM      5  C   UNL     1      11.104   0.063  -4.550  0.00  0.00    +0.045 C 
ATOM      6  C   UNL     1       9.799   0.130  -3.716  0.00  0.00    +0.060 C 
ENDROOT
BRANCH   1   7
ATOM      7  N   UNL     1       7.488   1.019  -3.877  0.00  0.00    -0.347 N 
ATOM      8  H   UNL     1       7.378   0.354  -3.113  0.00  0.00    +0.146 HD
BRANCH   7   9
ATOM      9  C   UNL     1       6.348   1.015  -4.787  0.00  0.00    +0.101 C 
BRANCH   9  10
ATOM     10  C   UNL     1       5.181   1.645  -4.041  0.00  0.00    +0.024 C 
BRANCH  10  11
ATOM     11  C   UNL     1       3.838   1.589  -4.769  0.00  0.00    +0.045 C 
BRANCH  11  17
ATOM     12  C   UNL     1       2.068   0.983  -2.077  0.00  0.00    +0.044 C 
ATOM     13  C   UNL     1       2.209   2.255  -2.843  0.00  0.00    -0.039 C 
ATOM     14  C   UNL     1       1.780   3.482  -2.394  0.00  0.00    +0.012 C 
ATOM     15  C   UNL     1       2.056   4.419  -3.337  0.00  0.00    +0.052 C 
ATOM     16  C   UNL     1       2.625   3.783  -4.385  0.00  0.00    -0.116 C 
ATOM     17  C   UNL     1       2.891   2.490  -4.028  0.00  0.00    -0.002 C 
ENDBRANCH  11  17
ENDBRANCH  10  11
ENDBRANCH   9  10
ENDBRANCH   7   9
ENDBRANCH   1   7
BRANCH   6  18
ATOM     18  C   UNL     1      10.093   0.349  -2.242  0.00  0.00    -0.017 C 
ATOM     19  C   UNL     1       9.749  -0.514  -1.279  0.00  0.00    -0.004 C 
BRANCH  19  20
ATOM     20  C   UNL     1      10.044  -0.315   0.123  0.00  0.00    +0.001 C 
ATOM     21  C   UNL     1       9.669  -1.192   1.061  0.00  0.00    +0.020 C 
BRANCH  21  22
ATOM     22  C   UNL     1       9.999  -0.962   2.485  0.00  0.00    +0.110 C 
ATOM     23  N   UNL     1       9.623  -1.810   3.387  0.00  0.00    -0.264 NA
BRANCH  23  24
ATOM     24  C   UNL     1       9.972  -1.518   4.677  0.00  0.00    +0.103 C 
ATOM     25  C   UNL     1       9.637  -2.333   5.681  0.00  0.00    +0.029 C 
ENDBRANCH  23  24
ENDBRANCH  21  22
ENDBRANCH  19  20
ENDBRANCH   6  18
BRANCH   4  26
ATOM     26  C   UNL     1      13.031   1.551  -5.404  0.00  0.00    +0.108 C 
BRANCH  26  27
ATOM     27  N   UNL     1      13.880   1.334  -4.241  0.00  0.00    -0.326 NA
ATOM     28  H   UNL     1      13.684   2.058  -3.552  0.00  0.00    +0.119 HD
ATOM     29  H   UNL     1      14.853   1.456  -4.514  0.00  0.00    +0.119 HD
ENDBRANCH  26  27
ENDBRANCH   4  26
TORSDOF 11
