REMARK  Name = 
REMARK  4 active torsions:
REMARK  status: ('A' for Active; 'I' for Inactive)
REMARK    1  A    between atoms: C_4  and  C_5
REMARK    2  A    between atoms: C_4  and  C_10
REMARK    3  A    between atoms: C_6  and  C_7
REMARK    4  A    between atoms: C_7  and  C_8
REMARK                            x       y       z     vdW  Elec       q    Type
REMARK                         _______ _______ _______ _____ _____    ______ ____
ROOT
ATOM      1  C   UNL     1       0.370   1.028  -0.002  0.00  0.00    +0.041 C 
ATOM      2  C   UNL     1      -0.903   0.214  -0.054  0.00  0.00    -0.029 C 
ATOM      3  C   UNL     1      -0.255  -0.963  -0.088  0.00  0.00    -0.020 C 
ATOM      4  C   UNL     1       1.131  -0.340   0.065  0.00  0.00    +0.007 C 
ATOM      5  C   UNL     1       1.816  -0.590   1.408  0.00  0.00    +0.020 C 
ENDROOT
BRANCH   4   6
ATOM      6  C   UNL     1       2.040  -0.575  -1.105  0.00  0.00    -0.020 C 
ATOM      7  C   UNL     1       2.454  -1.803  -1.460  0.00  0.00    -0.023 C 
BRANCH   7   8
ATOM      8  C   UNL     1       3.389  -2.051  -2.607  0.00  0.00    +0.097 C 
BRANCH   8   9
ATOM      9  C   UNL     1       4.676  -2.735  -2.184  0.00  0.00    +0.227 C 
ATOM     10  O   UNL     1       4.941  -3.122  -1.050  0.00  0.00    -0.301 OA
ENDBRANCH   8   9
ENDBRANCH   7   8
ENDBRANCH   4   6
TORSDOF 3
