REMARK  Name = 
REMARK  7 active torsions:
REMARK  status: ('A' for Active; 'I' for Inactive)
REMARK    1  A    between atoms: C_2  and  C_3
REMARK    2  A    between atoms: C_3  and  C_4
REMARK    3  A    between atoms: C_4  and  C_5
REMARK    4  A    between atoms: C_5  and  C_6
REMARK    5  A    between atoms: C_7  and  C_8
REMARK    6  A    between atoms: C_8  and  N_10
REMARK    7  A    between atoms: C_20  and  C_21
REMARK                            x       y       z     vdW  Elec       q    Type
REMARK                         _______ _______ _______ _____ _____    ______ ____
ROOT
ATOM      1  N   UNL     1      10.088  -2.848  -4.362  0.00  0.00    -0.244 N 
ATOM      2  N   UNL     1       9.380  -3.716  -5.388  0.00  0.00    -0.236 NA
ATOM      3  C   UNL     1       9.972  -4.330  -6.624  0.00  0.00    +0.103 C 
ATOM      4  C   UNL     1      11.460  -4.264  -6.684  0.00  0.00    +0.021 C 
ATOM      5  C   UNL     1      12.490  -4.673  -7.733  0.00  0.00    +0.028 C 
ATOM      6  C   UNL     1      13.699  -3.852  -7.249  0.00  0.00    -0.026 C 
ATOM      7  C   UNL     1      14.549  -4.255  -6.277  0.00  0.00    +0.004 C 
ATOM      8  C   UNL     1      11.481  -2.581  -4.314  0.00  0.00    +0.093 C 
ATOM      9  C   UNL     1      12.579  -3.352  -4.200  0.00  0.00    +0.017 C 
ATOM     10  C   UNL     1      13.975  -2.894  -4.307  0.00  0.00    +0.010 C 
ATOM     11  C   UNL     1      14.935  -3.311  -5.193  0.00  0.00    -0.018 C 
ATOM     12  H   UNL     1       8.619  -3.130  -5.744  0.00  0.00    +0.145 HD
ENDROOT
BRANCH  11  13
ATOM     13  C   UNL     1      16.223  -2.631  -5.080  0.00  0.00    -0.011 C 
ATOM     14  C   UNL     1      16.723  -2.081  -6.207  0.00  0.00    +0.017 C 
ATOM     15  C   UNL     1      17.609  -2.595  -5.318  0.00  0.00    -0.024 C 
ATOM     16  C   UNL     1      18.900  -2.749  -5.116  0.00  0.00    +0.017 C 
ENDBRANCH  11  13
BRANCH   1  17
ATOM     17  C   UNL     1       9.186  -2.161  -3.463  0.00  0.00    +0.042 C 
ATOM     18  C   UNL     1       7.846  -2.334  -3.442  0.00  0.00    +0.035 C 
BRANCH  17  20
ATOM     19  C   UNL     1       9.291  -0.048  -2.097  0.00  0.00    -0.025 C 
ATOM     20  C   UNL     1       9.714  -1.292  -2.386  0.00  0.00    +0.020 C 
BRANCH  19  21
ATOM     21  C   UNL     1       9.851   0.832  -0.994  0.00  0.00    +0.027 C 
BRANCH  21  22
ATOM     22  C   UNL     1       8.807   1.474  -0.052  0.00  0.00    +0.008 C 
BRANCH  22  23
ATOM     23  C   UNL     1       9.493   2.404   0.969  0.00  0.00    +0.027 C 
BRANCH  23  25
ATOM     24  C   UNL     1       8.452   4.400   2.099  0.00  0.00    +0.004 C 
ATOM     25  C   UNL     1       8.547   3.072   1.933  0.00  0.00    -0.034 C 
ENDBRANCH  23  25
ENDBRANCH  22  23
ENDBRANCH  21  22
ENDBRANCH  19  21
ENDBRANCH  17  20
ENDBRANCH   1  17
TORSDOF 7
