REMARK  Name = 
REMARK  6 active torsions:
REMARK  status: ('A' for Active; 'I' for Inactive)
REMARK    1  A    between atoms: C_2  and  C_3
REMARK    2  A    between atoms: C_4  and  C_5
REMARK    3  A    between atoms: C_4  and  C_17
REMARK    4  A    between atoms: C_6  and  C_7
REMARK    5  A    between atoms: C_6  and  C_8
REMARK    6  A    between atoms: C_8  and  N_10
REMARK                            x       y       z     vdW  Elec       q    Type
REMARK                         _______ _______ _______ _____ _____    ______ ____
ROOT
ATOM      1  C   UNL     1       5.925   1.740  -1.546  0.00  0.00    +0.264 C 
ATOM      2  O   UNL     1       5.746   2.800  -2.133  0.00  0.00    -0.268 OA
ENDROOT
BRANCH   1   3
ATOM      3  N   UNL     1       7.049   0.979  -1.646  0.00  0.00    -0.176 NA
ATOM      4  C   UNL     1       8.224   1.503  -1.684  0.00  0.00    +0.071 C 
ATOM      5  C   UNL     1       9.356   0.580  -1.961  0.00  0.00    +0.026 C 
ATOM      6  C   UNL     1      10.463   1.323  -1.970  0.00  0.00    +0.003 C 
ATOM      7  C   UNL     1      10.145   2.689  -1.693  0.00  0.00    +0.017 C 
ATOM      8  C   UNL     1       8.830   2.862  -1.514  0.00  0.00    +0.041 C 
ATOM      9 BR   UNL     1       8.032   4.429  -1.007  0.00  0.00    -0.048 Br
ENDBRANCH   1   3
BRANCH   1  11
ATOM     10  C   UNL     1       5.032   0.024   0.047  0.00  0.00    +0.012 C 
ATOM     11  C   UNL     1       4.785   1.034  -0.830  0.00  0.00    +0.014 C 
ATOM     12  C   UNL     1       3.445   1.595  -1.231  0.00  0.00    +0.049 C 
BRANCH  10  14
ATOM     13  C   UNL     1       4.464  -1.820   1.661  0.00  0.00    +0.003 C 
ATOM     14  C   UNL     1       4.104  -0.837   0.803  0.00  0.00    -0.050 C 
ATOM     15  C   UNL     1       2.616  -0.656   0.617  0.00  0.00    +0.044 C 
BRANCH  13  17
ATOM     16  C   UNL     1       5.872  -3.306   2.977  0.00  0.00    +0.008 C 
ATOM     17  C   UNL     1       5.761  -2.298   2.094  0.00  0.00    -0.007 C 
ENDBRANCH  13  17
ENDBRANCH  10  14
ENDBRANCH   1  11
TORSDOF 4
