REMARK  Name = 
REMARK  2 active torsions:
REMARK  status: ('A' for Active; 'I' for Inactive)
REMARK    1  A    between atoms: C_8  and  C_9
REMARK    2  A    between atoms: C_11  and  C_12
REMARK                            x       y       z     vdW  Elec       q    Type
REMARK                         _______ _______ _______ _____ _____    ______ ____
ROOT
ATOM      1  C   UNL     1       2.051  -3.748   0.314  0.00  0.00    -0.026 C 
ATOM      2  C   UNL     1       1.769  -2.590   0.955  0.00  0.00    -0.004 C 
ATOM      3  C   UNL     1       0.410  -2.023   0.917  0.00  0.00    +0.004 C 
ATOM      4  C   UNL     1      -0.544  -2.886   0.530  0.00  0.00    -0.032 C 
ATOM      5  C   UNL     1      -0.324  -4.398   0.444  0.00  0.00    +0.054 C 
ATOM      6  C   UNL     1       0.980  -4.614  -0.350  0.00  0.00    +0.040 C 
ATOM      7  C   UNL     1      -1.519  -2.976  -0.558  0.00  0.00    -0.015 C 
ATOM      8  C   UNL     1      -1.648  -2.215  -1.677  0.00  0.00    -0.042 C 
ATOM      9  C   UNL     1      -1.231  -0.780  -1.843  0.00  0.00    +0.044 C 
ATOM     10  C   UNL     1      -1.705  -2.977  -2.954  0.00  0.00    +0.011 C 
ATOM     11  C   UNL     1      -2.862  -3.258  -3.601  0.00  0.00    -0.026 C 
ATOM     12  C   UNL     1      -3.306  -4.623  -3.247  0.00  0.00    +0.004 C 
ATOM     13  C   UNL     1      -4.180  -4.669  -2.223  0.00  0.00    -0.022 C 
ATOM     14  C   UNL     1      -3.963  -5.511  -1.008  0.00  0.00    +0.054 C 
ATOM     15  C   UNL     1      -2.586  -5.405  -0.381  0.00  0.00    -0.018 C 
ATOM     16  C   UNL     1      -1.687  -4.406  -0.255  0.00  0.00    -0.036 C 
ENDROOT
BRANCH  11  17
ATOM     17  C   UNL     1      -3.748  -2.209  -4.062  0.00  0.00    +0.000 C 
ATOM     18  C   UNL     1      -4.704  -2.415  -4.978  0.00  0.00    +0.009 C 
ENDBRANCH  11  17
TORSDOF 1
