REMARK  Name = 
REMARK  17 active torsions:
REMARK  status: ('A' for Active; 'I' for Inactive)
REMARK    1  A    between atoms: C_1  and  O_2
REMARK    2  A    between atoms: O_2  and  C_3
REMARK    3  A    between atoms: C_4  and  C_5
REMARK    4  A    between atoms: C_6  and  C_7
REMARK    5  A    between atoms: C_8  and  N_9
REMARK    6  A    between atoms: C_8  and  C_20
REMARK    7  A    between atoms: N_9  and  C_10
REMARK    8  A    between atoms: C_10  and  N_11
REMARK    9  A    between atoms: N_11  and  C_12
REMARK   10  A    between atoms: C_12  and  C_14
REMARK   11  A    between atoms: C_15  and  C_16
REMARK   12  A    between atoms: C_17  and  C_18
REMARK   13  A    between atoms: C_20  and  N_21
REMARK   14  A    between atoms: N_23  and  C_24
REMARK   15  A    between atoms: C_24  and  C_25
REMARK   16  A    between atoms: C_25  and  N_26
REMARK   17  A    between atoms: N_26  and  C_27
REMARK                            x       y       z     vdW  Elec       q    Type
REMARK                         _______ _______ _______ _____ _____    ______ ____
ROOT
ATOM      1  C   UNL     1       7.315  -2.574  -2.924  0.00  0.00    +0.020 C 
ATOM      2  C   UNL     1       8.669  -2.479  -2.901  0.00  0.00    +0.022 C 
ENDROOT
BRANCH   2   3
ATOM      3  N   UNL     1       9.354  -1.629  -2.002  0.00  0.00    -0.331 N 
ATOM      4  H   UNL     1      10.291  -1.410  -2.327  0.00  0.00    +0.147 HD
BRANCH   3   5
ATOM      5  C   UNL     1       9.367  -1.923  -0.570  0.00  0.00    +0.207 C 
BRANCH   5   6
ATOM      6  N   UNL     1       9.440  -0.699   0.181  0.00  0.00    -0.329 N 
ATOM      7  H   UNL     1      10.082  -0.006  -0.178  0.00  0.00    +0.148 HD
BRANCH   6   8
ATOM      8  C   UNL     1       8.972  -0.484   1.467  0.00  0.00    +0.021 C 
ATOM      9  C   UNL     1       8.655  -1.481   2.311  0.00  0.00    +0.033 C 
BRANCH   8  10
ATOM     10  C   UNL     1       8.760   0.889   1.938  0.00  0.00    +0.022 C 
ATOM     11  C   UNL     1       9.014   2.011   1.246  0.00  0.00    +0.002 C 
BRANCH  11  12
ATOM     12  C   UNL     1       8.729   3.347   1.729  0.00  0.00    +0.000 C 
ATOM     13  C   UNL     1       9.024   4.435   1.000  0.00  0.00    -0.001 C 
BRANCH  13  14
ATOM     14  C   UNL     1       8.741   5.783   1.424  0.00  0.00    -0.008 C 
ATOM     15  C   UNL     1       9.055   6.855   0.681  0.00  0.00    +0.008 C 
ENDBRANCH  13  14
ENDBRANCH  11  12
ENDBRANCH   8  10
ENDBRANCH   6   8
ENDBRANCH   5   6
ENDBRANCH   3   5
ENDBRANCH   2   3
BRANCH   1  17
ATOM     16  C   UNL     1       5.082  -1.836  -2.070  0.00  0.00    +0.003 C 
ATOM     17  C   UNL     1       6.425  -1.784  -2.089  0.00  0.00    +0.002 C 
BRANCH  16  19
ATOM     18  C   UNL     1       3.004  -0.927  -1.051  0.00  0.00    +0.186 C 
ATOM     19  C   UNL     1       4.334  -0.999  -1.153  0.00  0.00    +0.037 C 
BRANCH  18  21
ATOM     20  C   UNL     1       1.009  -0.094  -0.141  0.00  0.00    +0.276 C 
ATOM     21  O   UNL     1       2.432  -0.089  -0.127  0.00  0.00    -0.503 OA
ENDBRANCH  18  21
ENDBRANCH  16  19
ENDBRANCH   1  17
BRANCH   2  22
ATOM     22  C   UNL     1       9.509  -3.390  -3.828  0.00  0.00    +0.153 C 
BRANCH  22  23
ATOM     23  N   UNL     1       9.857  -2.721  -5.063  0.00  0.00    -0.330 N 
ATOM     24  C   UNL     1      10.486  -3.294  -6.135  0.00  0.00    +0.175 C 
ATOM     25  N   UNL     1      10.680  -2.683  -7.252  0.00  0.00    -0.275 NA
ATOM     26  H   UNL     1       9.469  -1.797  -5.214  0.00  0.00    +0.147 HD
BRANCH  25  27
ATOM     27  C   UNL     1      11.410  -3.448  -8.287  0.00  0.00    +0.161 C 
BRANCH  27  28
ATOM     28  C   UNL     1      11.608  -2.568  -9.540  0.00  0.00    +0.124 C 
BRANCH  28  29
ATOM     29  N   UNL     1      12.366  -3.255 -10.585  0.00  0.00    -0.347 N 
ATOM     30  H   UNL     1      11.832  -3.678 -11.339  0.00  0.00    +0.146 HD
BRANCH  29  31
ATOM     31  C   UNL     1      13.722  -3.133 -10.802  0.00  0.00    +0.075 C 
ATOM     32  C   UNL     1      14.411  -3.633 -11.825  0.00  0.00    -0.012 C 
ATOM     33  C   UNL     1      15.494  -3.946 -12.654  0.00  0.00    +0.010 C 
ATOM     34  C   UNL     1      15.813  -3.253 -11.619  0.00  0.00    +0.010 C 
ENDBRANCH  29  31
ENDBRANCH  28  29
ENDBRANCH  27  28
ENDBRANCH  25  27
ENDBRANCH  22  23
ENDBRANCH   2  22
TORSDOF 16
