REMARK  Name = 
REMARK  1 active torsions:
REMARK  status: ('A' for Active; 'I' for Inactive)
REMARK    1  A    between atoms: C_5  and  O_6
REMARK                            x       y       z     vdW  Elec       q    Type
REMARK                         _______ _______ _______ _____ _____    ______ ____
ROOT
ATOM      1  C   UNL     1      -0.015   1.283   0.003  0.00  0.00    +0.100 C 
ATOM      2  C   UNL     1       1.138   0.317   0.000  0.00  0.00    -0.019 C 
ATOM      3  C   UNL     1       0.679  -0.946  -0.004  0.00  0.00    -0.001 C 
ATOM      4  C   UNL     1      -0.766  -0.935  -0.003  0.00  0.00    +0.041 C 
ATOM      5  C   UNL     1      -1.181   0.340   0.002  0.00  0.00    +0.098 C 
ENDROOT
BRANCH   5   6
ATOM      6  O   UNL     1      -2.459   0.808   0.006  0.00  0.00    -0.511 OA
ATOM      7  H   UNL     1      -3.059   0.043   0.009  0.00  0.00    +0.292 HD
ENDBRANCH   5   6
TORSDOF 1
