REMARK  Name = 
REMARK  12 active torsions:
REMARK  status: ('A' for Active; 'I' for Inactive)
REMARK    1  A    between atoms: C_2  and  C_3
REMARK    2  A    between atoms: C_3  and  C_15
REMARK    3  A    between atoms: C_4  and  C_5
REMARK    4  A    between atoms: C_5  and  C_6
REMARK    5  A    between atoms: N_8  and  C_9
REMARK    6  A    between atoms: C_15  and  C_16
REMARK    7  A    between atoms: C_16  and  C_17
REMARK    8  A    between atoms: C_16  and  C_18
REMARK    9  A    between atoms: N_19  and  C_20
REMARK   10  A    between atoms: C_21  and  C_22
REMARK   11  A    between atoms: C_23  and  C_24
REMARK   12  A    between atoms: C_25  and  C_26
REMARK                            x       y       z     vdW  Elec       q    Type
REMARK                         _______ _______ _______ _____ _____    ______ ____
ROOT
ATOM      1  C   UNL     1       3.893   0.043  -0.058  0.00  0.00    +0.025 C 
ATOM      2  C   UNL     1       4.172   0.429   1.198  0.00  0.00    -0.001 C 
ENDROOT
BRANCH   1   4
ATOM      3  C   UNL     1       1.915   1.430  -1.520  0.00  0.00    +0.009 C 
ATOM      4  C   UNL     1       2.829   0.789  -0.845  0.00  0.00    -0.070 C 
ENDBRANCH   1   4
BRANCH   1   5
ATOM      5  C   UNL     1       4.567  -1.084  -0.773  0.00  0.00    -0.022 C 
ATOM      6  C   UNL     1       5.913  -1.035  -0.916  0.00  0.00    +0.043 C 
BRANCH   6   7
ATOM      7  C   UNL     1       6.807  -2.035  -1.454  0.00  0.00    +0.117 C 
ATOM      8  C   UNL     1       6.798  -2.556  -2.685  0.00  0.00    +0.049 C 
ATOM      9  F   UNL     1       7.805  -2.417  -0.626  0.00  0.00    -0.206 F 
ENDBRANCH   6   7
BRANCH   5  10
ATOM     10  C   UNL     1       3.761  -2.321  -1.230  0.00  0.00    +0.058 C 
ATOM     11  C   UNL     1       2.472  -2.585  -0.447  0.00  0.00    +0.018 C 
BRANCH  10  12
ATOM     12  C   UNL     1       3.390  -2.340  -2.725  0.00  0.00    +0.091 C 
ATOM     13  N   UNL     1       3.322  -3.461  -3.381  0.00  0.00    -0.267 NA
BRANCH  13  14
ATOM     14  C   UNL     1       2.762  -3.412  -4.635  0.00  0.00    +0.110 C 
ATOM     15  C   UNL     1       2.991  -4.320  -5.599  0.00  0.00    +0.019 C 
BRANCH  15  16
ATOM     16  C   UNL     1       2.284  -4.315  -6.869  0.00  0.00    -0.003 C 
ATOM     17  C   UNL     1       2.506  -5.177  -7.873  0.00  0.00    -0.030 C 
ATOM     18  C   UNL     1       1.730  -5.180  -9.155  0.00  0.00    +0.035 C 
ENDBRANCH  15  16
ENDBRANCH  13  14
ENDBRANCH  10  12
ENDBRANCH   5  10
ENDBRANCH   1   5
BRANCH   2  19
ATOM     19  C   UNL     1       3.517   1.581   1.913  0.00  0.00    +0.124 C 
BRANCH  19  20
ATOM     20  C   UNL     1       2.854   1.096   3.191  0.00  0.00    +0.221 C 
ATOM     21  O   UNL     1       3.500   1.056   4.235  0.00  0.00    -0.275 OA
ATOM     22  N   UNL     1       1.538   0.693   3.023  0.00  0.00    -0.285 N 
ATOM     23  H   UNL     1       1.212   0.563   2.072  0.00  0.00    +0.155 HD
BRANCH  22  24
ATOM     24  C   UNL     1       0.677   0.249   4.054  0.00  0.00    +0.033 A 
ATOM     25  C   UNL     1       0.935   0.480   5.408  0.00  0.00    +0.023 A 
ATOM     26  C   UNL     1       0.086  -0.027   6.394  0.00  0.00    +0.002 A 
ATOM     27  C   UNL     1      -1.038  -0.764   6.036  0.00  0.00    +0.000 A 
ATOM     28  C   UNL     1      -1.328  -0.969   4.689  0.00  0.00    +0.002 A 
ATOM     29  C   UNL     1      -0.482  -0.453   3.700  0.00  0.00    +0.023 A 
ENDBRANCH  22  24
ENDBRANCH  19  20
ENDBRANCH   2  19
TORSDOF 10
