REMARK  Name = 
REMARK  19 active torsions:
REMARK  status: ('A' for Active; 'I' for Inactive)
REMARK    1  A    between atoms: C_1  and  C_2
REMARK    2  A    between atoms: C_3  and  C_4
REMARK    3  A    between atoms: C_4  and  C_5
REMARK    4  A    between atoms: C_4  and  C_11
REMARK    5  A    between atoms: C_6  and  C_7
REMARK    6  A    between atoms: C_7  and  N_8
REMARK    7  A    between atoms: C_11  and  C_12
REMARK    8  A    between atoms: C_12  and  N_13
REMARK    9  A    between atoms: N_13  and  C_14
REMARK   10  A    between atoms: C_15  and  N_16
REMARK   11  A    between atoms: C_15  and  C_26
REMARK   12  A    between atoms: C_17  and  N_18
REMARK   13  A    between atoms: C_24  and  C_25
REMARK   14  A    between atoms: C_26  and  C_27
REMARK   15  A    between atoms: C_27  and  C_28
REMARK   16  A    between atoms: C_27  and  C_29
REMARK   17  A    between atoms: C_29  and  C_30
REMARK   18  A    between atoms: C_30  and  C_31
REMARK   19  A    between atoms: C_31  and  C_32
REMARK                            x       y       z     vdW  Elec       q    Type
REMARK                         _______ _______ _______ _____ _____    ______ ____
ROOT
ATOM      1  C   UNL     1       8.510   0.089  -4.241  0.00  0.00    +0.091 C 
ATOM      2  C   UNL     1       8.876  -0.059  -5.528  0.00  0.00    +0.057 C 
ENDROOT
BRANCH   2   3
ATOM      3  N   UNL     1       8.035  -0.409  -6.565  0.00  0.00    -0.238 NA
ATOM      4  C   UNL     1       6.814   0.028  -6.555  0.00  0.00    +0.231 C 
BRANCH   4   5
ATOM      5  N   UNL     1       5.914  -0.346  -7.531  0.00  0.00    -0.193 NA
ATOM      6  C   UNL     1       6.337  -0.422  -8.617  0.00  0.00    -0.001 C 
ATOM      7  C   UNL     1       6.791  -0.468  -9.830  0.00  0.00    +0.059 C 
ATOM      8  C   UNL     1       6.637   0.508 -10.861  0.00  0.00    +0.039 C 
ATOM      9  C   UNL     1       7.371   0.046 -11.885  0.00  0.00    +0.112 C 
ATOM     10  N   UNL     1       8.024  -1.153 -11.645  0.00  0.00    -0.259 NA
ATOM     11  C   UNL     1       7.691  -1.473 -10.413  0.00  0.00    +0.054 C 
ATOM     12  C   UNL     1       8.172  -2.699  -9.713  0.00  0.00    +0.067 C 
ENDBRANCH   4   5
ENDBRANCH   2   3
BRANCH   1  13
ATOM     13  N   UNL     1       7.259  -0.090  -3.716  0.00  0.00    -0.348 N 
ATOM     14  H   UNL     1       6.668  -0.736  -4.232  0.00  0.00    +0.146 HD
BRANCH  13  15
ATOM     15  C   UNL     1       6.843   0.175  -2.366  0.00  0.00    +0.102 C 
BRANCH  15  16
ATOM     16  C   UNL     1       5.855   1.343  -2.373  0.00  0.00    +0.030 C 
BRANCH  16  17
ATOM     17  C   UNL     1       5.300   1.689  -0.983  0.00  0.00    +0.035 C 
BRANCH  17  20
ATOM     18  C   UNL     1       2.503  -0.547   0.586  0.00  0.00    +0.035 C 
ATOM     19  C   UNL     1       3.231   0.569  -0.085  0.00  0.00    -0.034 C 
ATOM     20  C   UNL     1       4.540   0.532  -0.376  0.00  0.00    -0.024 C 
ENDBRANCH  17  20
BRANCH  17  21
ATOM     21  C   UNL     1       6.409   2.121  -0.055  0.00  0.00    -0.022 C 
ATOM     22  C   UNL     1       6.509   3.338   0.503  0.00  0.00    -0.012 C 
BRANCH  22  23
ATOM     23  C   UNL     1       7.611   3.717   1.436  0.00  0.00    +0.131 C 
BRANCH  23  24
ATOM     24  N   UNL     1       8.326   4.830   0.873  0.00  0.00    -0.314 N 
ATOM     25  C   UNL     1       9.394   5.376   1.533  0.00  0.00    +0.325 C 
ATOM     26  O   UNL     1       9.830   5.000   2.612  0.00  0.00    -0.280 OA
ATOM     27  H   UNL     1       8.034   5.231  -0.009  0.00  0.00    +0.149 HD
ENDBRANCH  23  24
ENDBRANCH  22  23
ENDBRANCH  17  21
ENDBRANCH  16  17
ENDBRANCH  15  16
ENDBRANCH  13  15
ENDBRANCH   1  13
BRANCH   2  28
ATOM     28  C   UNL     1      10.356  -0.008  -5.862  0.00  0.00    +0.060 C 
BRANCH  28  29
ATOM     29  C   UNL     1      10.804   1.082  -6.860  0.00  0.00    -0.008 C 
ATOM     30  C   UNL     1      10.472   2.483  -6.332  0.00  0.00    +0.008 C 
BRANCH  29  31
ATOM     31  C   UNL     1      12.326   0.977  -7.155  0.00  0.00    +0.004 C 
BRANCH  31  32
ATOM     32  C   UNL     1      12.704  -0.372  -7.783  0.00  0.00    +0.004 C 
BRANCH  32  33
ATOM     33  C   UNL     1      14.195  -0.512  -8.087  0.00  0.00    +0.026 C 
BRANCH  33  34
ATOM     34  C   UNL     1      14.476  -1.868  -8.678  0.00  0.00    -0.034 C 
ATOM     35  C   UNL     1      15.290  -2.776  -8.126  0.00  0.00    +0.004 C 
ENDBRANCH  33  34
ENDBRANCH  32  33
ENDBRANCH  31  32
ENDBRANCH  29  31
ENDBRANCH  28  29
ENDBRANCH   2  28
TORSDOF 16
