REMARK  Name = 
REMARK  14 active torsions:
REMARK  status: ('A' for Active; 'I' for Inactive)
REMARK    1  A    between atoms: C_2  and  C_3
REMARK    2  A    between atoms: C_3  and  C_4
REMARK    3  A    between atoms: C_4  and  C_5
REMARK    4  A    between atoms: C_6  and  N_7
REMARK    5  A    between atoms: N_7  and  C_8
REMARK    6  A    between atoms: C_8  and  N_9
REMARK    7  A    between atoms: N_9  and  C_10
REMARK    8  A    between atoms: C_11  and  C_12
REMARK    9  A    between atoms: C_13  and  N_14
REMARK   10  A    between atoms: N_14  and  C_15
REMARK   11  A    between atoms: C_22  and  C_24
REMARK   12  A    between atoms: C_24  and  C_25
REMARK   13  A    between atoms: C_25  and  N_26
REMARK   14  A    between atoms: N_26  and  C_27
REMARK                            x       y       z     vdW  Elec       q    Type
REMARK                         _______ _______ _______ _____ _____    ______ ____
ROOT
ATOM      1  C   UNL     1      10.747   0.577  -5.122  0.00  0.00    +0.082 A 
ATOM      2  C   UNL     1      11.349   1.514  -5.982  0.00  0.00    +0.151 A 
ATOM      3  O   UNL     1      12.696   1.270  -5.992  0.00  0.00    -0.453 OA
ATOM      4  C   UNL     1      12.965   0.214  -5.197  0.00  0.00    +0.138 A 
ATOM      5  C   UNL     1      14.255  -0.286  -5.014  0.00  0.00    +0.047 A 
ATOM      6  C   UNL     1      14.397  -1.388  -4.185  0.00  0.00    +0.004 A 
ATOM      7  C   UNL     1      13.285  -1.947  -3.565  0.00  0.00    +0.004 A 
ATOM      8  C   UNL     1      11.975  -1.432  -3.741  0.00  0.00    -0.034 A 
ATOM      9  C   UNL     1      11.807  -0.292  -4.608  0.00  0.00    +0.045 A 
ENDROOT
BRANCH   1  10
ATOM     10  N   UNL     1       9.385   0.578  -4.900  0.00  0.00    -0.325 N 
ATOM     11  H   UNL     1       8.859   1.389  -5.205  0.00  0.00    +0.148 HD
BRANCH  10  12
ATOM     12  C   UNL     1       8.810   0.091  -3.687  0.00  0.00    +0.206 C 
BRANCH  12  13
ATOM     13  N   UNL     1       7.384   0.316  -3.639  0.00  0.00    -0.335 N 
ATOM     14  H   UNL     1       6.928   0.061  -4.512  0.00  0.00    +0.147 HD
BRANCH  13  16
ATOM     15  C   UNL     1       5.359  -0.272  -2.400  0.00  0.00    -0.012 C 
ATOM     16  C   UNL     1       6.682  -0.143  -2.538  0.00  0.00    +0.064 C 
BRANCH  15  17
ATOM     17  C   UNL     1       4.721  -0.779  -1.130  0.00  0.00    +0.032 C 
BRANCH  17  18
ATOM     18  C   UNL     1       3.376  -1.464  -1.401  0.00  0.00    +0.031 C 
BRANCH  18  20
ATOM     19  C   UNL     1       2.346  -3.194   0.100  0.00  0.00    +0.004 C 
ATOM     20  C   UNL     1       2.705  -1.926  -0.137  0.00  0.00    -0.034 C 
ENDBRANCH  18  20
ENDBRANCH  17  18
ENDBRANCH  15  17
ENDBRANCH  13  16
ENDBRANCH  12  13
ENDBRANCH  10  12
ENDBRANCH   1  10
BRANCH   2  21
ATOM     21  C   UNL     1      10.763   2.571  -6.745  0.00  0.00    +0.063 C 
ATOM     22  C   UNL     1      11.505   3.393  -7.503  0.00  0.00    +0.075 C 
BRANCH  22  23
ATOM     23  N   UNL     1      11.036   4.436  -8.266  0.00  0.00    -0.327 N 
ATOM     24  H   UNL     1      10.032   4.585  -8.245  0.00  0.00    +0.151 HD
BRANCH  23  25
ATOM     25  C   UNL     1      11.744   5.294  -9.054  0.00  0.00    +0.064 C 
ATOM     26  C   UNL     1      11.237   6.295  -9.780  0.00  0.00    +0.025 C 
ENDBRANCH  23  25
ENDBRANCH  22  23
ENDBRANCH   2  21
BRANCH   8  27
ATOM     27  C   UNL     1      10.836  -2.105  -3.017  0.00  0.00    +0.051 C 
BRANCH  27  28
ATOM     28  C   UNL     1      11.046  -3.304  -2.086  0.00  0.00    +0.088 C 
BRANCH  28  29
ATOM     29  N   UNL     1       9.736  -3.675  -1.526  0.00  0.00    -0.290 NA
ATOM     30  H   UNL     1       9.126  -3.970  -2.289  0.00  0.00    +0.124 HD
BRANCH  29  31
ATOM     31  C   UNL     1       9.863  -4.805  -0.629  0.00  0.00    +0.298 C 
ATOM     32  F   UNL     1      10.320  -5.859  -1.348  0.00  0.00    -0.232 F 
ENDBRANCH  29  31
ENDBRANCH  28  29
ENDBRANCH  27  28
ENDBRANCH   8  27
TORSDOF 14
