REMARK  Name = 
REMARK  12 active torsions:
REMARK  status: ('A' for Active; 'I' for Inactive)
REMARK    1  A    between atoms: C_2  and  C_3
REMARK    2  A    between atoms: C_3  and  C_4
REMARK    3  A    between atoms: C_4  and  C_5
REMARK    4  A    between atoms: C_5  and  C_6
REMARK    5  A    between atoms: C_5  and  C_13
REMARK    6  A    between atoms: C_6  and  C_7
REMARK    7  A    between atoms: C_7  and  N_8
REMARK    8  A    between atoms: C_14  and  C_15
REMARK    9  A    between atoms: C_15  and  C_16
REMARK   10  A    between atoms: C_16  and  C_17
REMARK   11  A    between atoms: C_17  and  N_18
REMARK   12  A    between atoms: N_18  and  C_19
REMARK                            x       y       z     vdW  Elec       q    Type
REMARK                         _______ _______ _______ _____ _____    ______ ____
ROOT
ATOM      1  C   UNL     1       5.411  -2.200  -0.677  0.00  0.00    +0.013 C 
ENDROOT
BRANCH   1   2
ATOM      2  C   UNL     1       6.912  -2.009  -0.539  0.00  0.00    -0.028 C 
ATOM      3  C   UNL     1       7.708  -2.768   0.235  0.00  0.00    -0.031 C 
BRANCH   3   4
ATOM      4  C   UNL     1       9.208  -2.628   0.248  0.00  0.00    +0.028 C 
BRANCH   4   5
ATOM      5  C   UNL     1       9.877  -3.604   1.222  0.00  0.00    +0.023 C 
BRANCH   5   6
ATOM      6  C   UNL     1      11.400  -3.465   1.195  0.00  0.00    +0.101 C 
BRANCH   6   7
ATOM      7  N   UNL     1      11.997  -4.436   2.095  0.00  0.00    -0.350 N 
ATOM      8  H   UNL     1      11.539  -4.580   2.991  0.00  0.00    +0.146 HD
BRANCH   7   9
ATOM      9  C   UNL     1      13.252  -4.962   1.972  0.00  0.00    +0.059 C 
ATOM     10  C   UNL     1      13.843  -5.799   2.826  0.00  0.00    +0.024 C 
ENDBRANCH   7   9
ENDBRANCH   6   7
ENDBRANCH   5   6
ENDBRANCH   4   5
ENDBRANCH   3   4
ENDBRANCH   1   2
BRANCH   1  11
ATOM     11  C   UNL     1       4.679  -0.901  -0.224  0.00  0.00    +0.011 C 
BRANCH  11  12
ATOM     12  C   UNL     1       3.149  -1.002  -0.307  0.00  0.00    +0.027 C 
BRANCH  12  14
ATOM     13  C   UNL     1       1.540   0.190   1.207  0.00  0.00    +0.004 C 
ATOM     14  C   UNL     1       2.420   0.214   0.192  0.00  0.00    -0.034 C 
ENDBRANCH  12  14
ENDBRANCH  11  12
ENDBRANCH   1  11
BRANCH   1  15
ATOM     15  C   UNL     1       5.060  -2.596  -2.139  0.00  0.00    +0.023 C 
BRANCH  15  16
ATOM     16  C   UNL     1       5.745  -3.891  -2.638  0.00  0.00    +0.085 C 
BRANCH  16  17
ATOM     17  N   UNL     1       5.376  -4.276  -4.011  0.00  0.00    -0.295 NA
ATOM     18  C   UNL     1       6.096  -5.486  -4.466  0.00  0.00    +0.111 C 
ATOM     19  C   UNL     1       6.633  -5.155  -5.817  0.00  0.00    -0.015 C 
ATOM     20  C   UNL     1       6.341  -3.894  -6.137  0.00  0.00    -0.015 C 
ATOM     21  C   UNL     1       5.587  -3.236  -5.034  0.00  0.00    +0.111 C 
ENDBRANCH  16  17
ENDBRANCH  15  16
ENDBRANCH   1  15
TORSDOF 12
