REMARK  Name = 
REMARK  17 active torsions:
REMARK  status: ('A' for Active; 'I' for Inactive)
REMARK    1  A    between atoms: C_1  and  C_2
REMARK    2  A    between atoms: C_3  and  C_4
REMARK    3  A    between atoms: C_6  and  C_10
REMARK    4  A    between atoms: C_13  and  C_14
REMARK    5  A    between atoms: C_15  and  C_16
REMARK    6  A    between atoms: C_16  and  C_18
REMARK    7  A    between atoms: C_18  and  C_19
REMARK    8  A    between atoms: C_19  and  C_21
REMARK    9  A    between atoms: C_22  and  C_23
REMARK   10  A    between atoms: C_24  and  C_25
REMARK   11  A    between atoms: C_26  and  C_27
REMARK   12  A    between atoms: C_27  and  C_28
REMARK   13  A    between atoms: C_29  and  C_30
REMARK   14  A    between atoms: C_29  and  C_31
REMARK   15  A    between atoms: C_31  and  C_32
REMARK   16  A    between atoms: C_32  and  C_33
REMARK   17  A    between atoms: C_33  and  C_34
REMARK                            x       y       z     vdW  Elec       q    Type
REMARK                         _______ _______ _______ _____ _____    ______ ____
ROOT
ATOM      1  C   UNL     1       9.522  -4.133  -3.088  0.00  0.00    -0.050 C 
ATOM      2  C   UNL     1       8.684  -4.978  -3.716  0.00  0.00    +0.012 C 
ENDROOT
BRANCH   1   4
ATOM      3  C   UNL     1       9.605  -2.201  -1.495  0.00  0.00    +0.004 C 
ATOM      4  C   UNL     1       8.924  -3.071  -2.257  0.00  0.00    +0.003 C 
BRANCH   3  12
ATOM      5  C   UNL     1       7.080  -0.014   0.864  0.00  0.00    +0.017 C 
ATOM      6  C   UNL     1       7.478   1.220   1.208  0.00  0.00    -0.109 C 
ATOM      7  C   UNL     1       8.197   2.354   1.319  0.00  0.00    -0.005 C 
ATOM      8  C   UNL     1       9.587   2.468   0.569  0.00  0.00    +0.044 C 
ATOM      9  C   UNL     1       9.603   1.136  -0.062  0.00  0.00    +0.010 C 
ATOM     10  C   UNL     1      10.200   0.098  -0.886  0.00  0.00    +0.035 C 
ATOM     11  C   UNL     1       7.909  -1.014  -0.050  0.00  0.00    +0.019 C 
ATOM     12  C   UNL     1       9.102  -1.032  -0.756  0.00  0.00    -0.046 C 
BRANCH   5  15
ATOM     13  C   UNL     1       3.612  -0.600   2.587  0.00  0.00    +0.035 C 
ATOM     14  C   UNL     1       4.880   0.083   2.170  0.00  0.00    -0.029 C 
ATOM     15  C   UNL     1       5.782  -0.513   1.368  0.00  0.00    +0.012 C 
ENDBRANCH   5  15
BRANCH   7  16
ATOM     16  C   UNL     1       7.799   3.526   2.089  0.00  0.00    +0.004 C 
ATOM     17  C   UNL     1       8.526   4.650   2.194  0.00  0.00    +0.009 C 
ENDBRANCH   7  16
ENDBRANCH   3  12
ENDBRANCH   1   4
BRANCH   1  18
ATOM     18  C   UNL     1      11.051  -4.180  -3.241  0.00  0.00    +0.069 C 
BRANCH  18  19
ATOM     19  C   UNL     1      11.665  -5.357  -4.009  0.00  0.00    -0.050 C 
ATOM     20  C   UNL     1      12.036  -5.215  -5.295  0.00  0.00    +0.012 C 
BRANCH  19  21
ATOM     21  C   UNL     1      11.981  -6.607  -3.315  0.00  0.00    +0.003 C 
ATOM     22  C   UNL     1      11.689  -6.846  -2.030  0.00  0.00    +0.000 C 
BRANCH  22  23
ATOM     23  C   UNL     1      12.028  -8.034  -1.281  0.00  0.00    -0.000 C 
ATOM     24  C   UNL     1      11.647  -8.133  -0.001  0.00  0.00    -0.000 C 
BRANCH  24  25
ATOM     25  C   UNL     1      11.847  -9.271   0.852  0.00  0.00    -0.004 C 
ATOM     26  C   UNL     1      13.043  -9.755   1.216  0.00  0.00    -0.023 C 
BRANCH  26  27
ATOM     27  C   UNL     1      13.181 -10.944   2.121  0.00  0.00    +0.054 C 
BRANCH  27  28
ATOM     28  C   UNL     1      13.322 -10.567   3.570  0.00  0.00    -0.024 C 
ATOM     29  C   UNL     1      13.398 -11.452   4.585  0.00  0.00    -0.076 C 
ATOM     30  C   UNL     1      13.359 -12.945   4.382  0.00  0.00    +0.039 C 
BRANCH  29  31
ATOM     31  C   UNL     1      13.508 -10.987   6.025  0.00  0.00    +0.030 C 
BRANCH  31  32
ATOM     32  C   UNL     1      14.779 -11.448   6.750  0.00  0.00    +0.004 C 
BRANCH  32  33
ATOM     33  C   UNL     1      16.066 -10.951   6.088  0.00  0.00    -0.003 C 
ATOM     34  C   UNL     1      17.294 -11.445   6.835  0.00  0.00    +0.004 C 
ENDBRANCH  32  33
ENDBRANCH  31  32
ENDBRANCH  29  31
ENDBRANCH  27  28
ENDBRANCH  26  27
ENDBRANCH  24  25
ENDBRANCH  22  23
ENDBRANCH  19  21
ENDBRANCH  18  19
ENDBRANCH   1  18
TORSDOF 14
