REMARK  Name = 
REMARK  5 active torsions:
REMARK  status: ('A' for Active; 'I' for Inactive)
REMARK    1  A    between atoms: C_8  and  C_9
REMARK    2  A    between atoms: C_9  and  N_10
REMARK    3  A    between atoms: N_10  and  C_11
REMARK    4  A    between atoms: C_11  and  C_13
REMARK    5  A    between atoms: C_14  and  C_15
REMARK                            x       y       z     vdW  Elec       q    Type
REMARK                         _______ _______ _______ _____ _____    ______ ____
ROOT
ATOM      1  C   UNL     1       4.614  -1.820  -1.339  0.00  0.00    +0.033 C 
ATOM      2  C   UNL     1       3.961  -2.761  -0.701  0.00  0.00    -0.123 C 
ATOM      3  C   UNL     1       3.112  -3.701  -0.370  0.00  0.00    +0.051 C 
ATOM      4  C   UNL     1       2.308  -4.312  -1.446  0.00  0.00    +0.008 C 
ATOM      5  C   UNL     1       1.507  -3.497  -2.183  0.00  0.00    +0.000 C 
ATOM      6  C   UNL     1       2.233  -2.753  -3.242  0.00  0.00    -0.004 C 
ATOM      7  C   UNL     1       2.644  -1.516  -2.876  0.00  0.00    -0.017 C 
ATOM      8  C   UNL     1       4.145  -1.246  -2.697  0.00  0.00    +0.059 C 
ENDROOT
BRANCH   8   9
ATOM      9  C   UNL     1       4.423   0.267  -2.850  0.00  0.00    +0.113 C 
BRANCH   9  10
ATOM     10  N   UNL     1       5.814   0.654  -2.620  0.00  0.00    -0.343 N 
ATOM     11  H   UNL     1       5.882   1.549  -2.143  0.00  0.00    +0.146 HD
BRANCH  10  12
ATOM     12  C   UNL     1       6.921   0.397  -3.406  0.00  0.00    +0.020 C 
ATOM     13  C   UNL     1       6.918  -0.391  -4.493  0.00  0.00    +0.033 C 
BRANCH  12  14
ATOM     14  C   UNL     1       8.199   1.018  -3.038  0.00  0.00    +0.018 C 
ATOM     15  C   UNL     1       8.423   1.873  -2.025  0.00  0.00    -0.028 C 
ATOM     16  C   UNL     1       9.760   2.471  -1.727  0.00  0.00    +0.035 C 
ENDBRANCH  12  14
ENDBRANCH  10  12
ENDBRANCH   9  10
ENDBRANCH   8   9
TORSDOF 4
