REMARK  Name = 
REMARK  4 active torsions:
REMARK  status: ('A' for Active; 'I' for Inactive)
REMARK    1  A    between atoms: N_22  and  C_23
REMARK    2  A    between atoms: C_26  and  C_27
REMARK    3  A    between atoms: C_28  and  C_29
REMARK    4  A    between atoms: C_28  and  C_30
REMARK                            x       y       z     vdW  Elec       q    Type
REMARK                         _______ _______ _______ _____ _____    ______ ____
ROOT
ATOM      1  C   UNL     1       0.134  -0.959   2.417  0.00  0.00    +0.140 A 
ATOM      2  N   UNL     1       0.189  -0.346   3.602  0.00  0.00    -0.180 NA
ATOM      3  N   UNL     1       1.518  -0.451   3.947  0.00  0.00    -0.263 N 
ATOM      4  C   UNL     1       2.160  -1.537   3.351  0.00  0.00    +0.137 A 
ATOM      5  C   UNL     1       1.380  -1.506   2.173  0.00  0.00    +0.022 A 
ATOM      6  C   UNL     1       2.203  -1.610   0.948  0.00  0.00    +0.067 C 
ATOM      7  C   UNL     1       3.569  -1.145   1.673  0.00  0.00    +0.141 C 
ATOM      8  N   UNL     1       3.510  -1.780   3.077  0.00  0.00    -0.236 N 
ATOM      9  N   UNL     1       4.771  -2.058   3.892  0.00  0.00    -0.268 N 
ATOM     10  C   UNL     1       5.392  -3.142   4.756  0.00  0.00    +0.112 C 
ATOM     11  C   UNL     1       6.176  -4.305   4.882  0.00  0.00    +0.067 C 
ATOM     12  C   UNL     1       6.446  -4.648   6.392  0.00  0.00    +0.135 C 
ATOM     13  N   UNL     1       6.842  -5.763   6.917  0.00  0.00    -0.260 NA
ATOM     14  C   UNL     1       7.054  -6.801   6.032  0.00  0.00    +0.126 C 
ATOM     15  C   UNL     1       7.079  -6.593   4.707  0.00  0.00    +0.095 C 
ATOM     16  N   UNL     1       6.880  -5.334   4.111  0.00  0.00    -0.298 N 
ATOM     17  C   UNL     1       7.995  -5.066   3.174  0.00  0.00    +0.157 C 
ATOM     18  C   UNL     1       7.338  -4.474   2.019  0.00  0.00    +0.097 C 
ATOM     19  N   UNL     1       7.489  -3.221   1.760  0.00  0.00    -0.293 NA
ATOM     20  C   UNL     1       6.132  -2.814   1.387  0.00  0.00    +0.160 C 
ATOM     21  C   UNL     1       5.796  -3.095  -0.059  0.00  0.00    +0.133 C 
ATOM     22  N   UNL     1       4.343  -3.117  -0.432  0.00  0.00    -0.305 N 
ATOM     23  C   UNL     1       2.104  -3.026   0.409  0.00  0.00    +0.006 C 
ATOM     24  C   UNL     1       3.274  -3.706   0.326  0.00  0.00    +0.030 C 
ATOM     25  H   UNL     1       1.969   0.425   4.183  0.00  0.00    +0.190 HD
ATOM     26  H   UNL     1       5.035  -1.171   4.332  0.00  0.00    +0.170 HD
ENDROOT
BRANCH  24  27
ATOM     27  C   UNL     1       3.367  -4.527   1.538  0.00  0.00    +0.026 C 
ATOM     28  C   UNL     1       3.824  -5.734   1.904  0.00  0.00    -0.049 C 
ATOM     29  C   UNL     1       4.412  -6.678   0.913  0.00  0.00    +0.044 C 
BRANCH  28  30
ATOM     30  C   UNL     1       3.698  -6.040   3.337  0.00  0.00    -0.004 C 
ATOM     31  C   UNL     1       4.112  -7.111   4.021  0.00  0.00    +0.009 C 
ENDBRANCH  28  30
ENDBRANCH  24  27
BRANCH  22  32
ATOM     32  C   UNL     1       4.005  -2.446  -1.629  0.00  0.00    +0.067 C 
ATOM     33  C   UNL     1       4.698  -1.590  -2.391  0.00  0.00    +0.025 C 
ENDBRANCH  22  32
TORSDOF 3
