REMARK  Name = 
REMARK  5 active torsions:
REMARK  status: ('A' for Active; 'I' for Inactive)
REMARK    1  A    between atoms: C_10  and  C_11
REMARK    2  A    between atoms: C_12  and  C_13
REMARK    3  A    between atoms: C_14  and  C_15
REMARK    4  A    between atoms: C_16  and  C_17
REMARK    5  A    between atoms: C_18  and  C_19
REMARK                            x       y       z     vdW  Elec       q    Type
REMARK                         _______ _______ _______ _____ _____    ______ ____
ROOT
ATOM      1  C   UNL     1       2.047  -2.817   0.003  0.00  0.00    +0.040 C 
ATOM      2  C   UNL     1       2.558  -1.898   1.164  0.00  0.00    -0.058 C 
ATOM      3  C   UNL     1       1.544  -1.408   1.948  0.00  0.00    -0.000 C 
ATOM      4  C   UNL     1       0.652  -0.500   1.202  0.00  0.00    +0.000 C 
ATOM      5  C   UNL     1       1.129  -0.201  -0.030  0.00  0.00    -0.051 C 
ATOM      6  C   UNL     1       1.937  -1.404  -0.696  0.00  0.00    +0.034 C 
ATOM      7  C   UNL     1       3.349  -1.115  -0.085  0.00  0.00    +0.089 C 
ATOM      8  C   UNL     1       3.415   0.445  -0.180  0.00  0.00    +0.152 C 
ATOM      9  O   UNL     1       4.429   1.104  -0.428  0.00  0.00    -0.296 OA
ATOM     10  C   UNL     1       2.014   1.084  -0.086  0.00  0.00    +0.105 C 
ENDROOT
BRANCH  10  11
ATOM     11  C   UNL     1       2.129   1.920   1.171  0.00  0.00    -0.012 C 
ATOM     12  C   UNL     1       1.850   3.224   1.306  0.00  0.00    -0.003 C 
BRANCH  12  13
ATOM     13  C   UNL     1       2.211   3.941   2.521  0.00  0.00    -0.000 C 
ATOM     14  C   UNL     1       1.945   5.232   2.733  0.00  0.00    -0.000 C 
BRANCH  14  15
ATOM     15  C   UNL     1       2.356   5.933   3.932  0.00  0.00    -0.000 C 
ATOM     16  C   UNL     1       2.055   7.221   4.153  0.00  0.00    -0.000 C 
BRANCH  16  17
ATOM     17  C   UNL     1       2.451   7.952   5.339  0.00  0.00    -0.005 C 
ATOM     18  C   UNL     1       2.125   9.235   5.540  0.00  0.00    -0.030 C 
ATOM     19  C   UNL     1       2.513  10.025   6.746  0.00  0.00    +0.035 C 
ENDBRANCH  16  17
ENDBRANCH  14  15
ENDBRANCH  12  13
ENDBRANCH  10  11
TORSDOF 4
