REMARK  Name = 
REMARK  8 active torsions:
REMARK  status: ('A' for Active; 'I' for Inactive)
REMARK    1  A    between atoms: C_7  and  C_8
REMARK    2  A    between atoms: C_8  and  N_9
REMARK    3  A    between atoms: C_12  and  C_15
REMARK    4  A    between atoms: C_15  and  C_16
REMARK    5  A    between atoms: C_16  and  C_17
REMARK    6  A    between atoms: C_17  and  C_18
REMARK    7  A    between atoms: C_18  and  C_19
REMARK    8  A    between atoms: C_19  and  C_20
REMARK                            x       y       z     vdW  Elec       q    Type
REMARK                         _______ _______ _______ _____ _____    ______ ____
ROOT
ATOM      1  C   UNL     1       0.119   4.794  -1.446  0.00  0.00    +0.063 C 
ATOM      2  C   UNL     1      -0.890   5.831  -1.871  0.00  0.00    -0.021 C 
ATOM      3  C   UNL     1      -0.572   6.357  -3.078  0.00  0.00    -0.030 C 
ATOM      4  C   UNL     1       0.871   6.833  -3.280  0.00  0.00    +0.027 C 
ATOM      5  C   UNL     1       1.963   6.093  -2.447  0.00  0.00    +0.009 C 
ATOM      6  C   UNL     1       1.454   5.516  -1.094  0.00  0.00    +0.011 C 
ATOM      7  C   UNL     1       2.516   4.588  -0.384  0.00  0.00    +0.041 C 
ATOM      8  C   UNL     1       1.854   3.364   0.283  0.00  0.00    -0.016 C 
ATOM      9  C   UNL     1       0.948   2.650  -0.424  0.00  0.00    -0.030 C 
ATOM     10  C   UNL     1      -0.191   3.657  -0.481  0.00  0.00    +0.042 C 
ATOM     11  N   UNL     1      -1.260   3.585   0.243  0.00  0.00    -0.303 NA
ATOM     12  H   UNL     1      -1.230   2.742   0.826  0.00  0.00    +0.186 HD
ENDROOT
BRANCH   7  13
ATOM     13  C   UNL     1       3.445   5.334   0.617  0.00  0.00    +0.197 C 
BRANCH  13  14
ATOM     14  N   UNL     1       2.710   5.917   1.792  0.00  0.00    -0.068 NA
ATOM     15  O   UNL     1       3.129   5.483   2.865  0.00  0.00    -0.149 OA
ENDBRANCH  13  14
ENDBRANCH   7  13
BRANCH   9  16
ATOM     16  C   UNL     1       1.203   2.095  -1.824  0.00  0.00    +0.036 C 
BRANCH  16  17
ATOM     17  C   UNL     1       1.946   0.777  -1.935  0.00  0.00    +0.005 C 
BRANCH  17  18
ATOM     18  C   UNL     1       1.215  -0.432  -1.355  0.00  0.00    +0.000 C 
BRANCH  18  19
ATOM     19  C   UNL     1       2.081  -1.671  -1.595  0.00  0.00    -0.000 C 
BRANCH  19  20
ATOM     20  C   UNL     1       1.469  -2.953  -1.047  0.00  0.00    -0.003 C 
ATOM     21  C   UNL     1       2.397  -4.131  -1.310  0.00  0.00    +0.004 C 
ENDBRANCH  19  20
ENDBRANCH  18  19
ENDBRANCH  17  18
ENDBRANCH  16  17
ENDBRANCH   9  16
TORSDOF 7
