REMARK  Name = 
REMARK  1 active torsions:
REMARK  status: ('A' for Active; 'I' for Inactive)
REMARK    1  A    between atoms: C_8  and  N_9
REMARK                            x       y       z     vdW  Elec       q    Type
REMARK                         _______ _______ _______ _____ _____    ______ ____
ROOT
ATOM      1  C   UNL     1      -0.913   0.026   1.374  0.00  0.00    +0.004 A 
ATOM      2  C   UNL     1      -0.951   0.917   0.268  0.00  0.00    +0.001 A 
ATOM      3  C   UNL     1      -0.655   0.457  -1.039  0.00  0.00    +0.005 A 
ATOM      4  C   UNL     1      -0.375  -0.933  -1.097  0.00  0.00    -0.030 A 
ATOM      5  C   UNL     1       0.445  -1.327  -0.012  0.00  0.00    +0.009 A 
ATOM      6  C   UNL     1      -0.489  -1.293   1.051  0.00  0.00    -0.045 A 
ATOM      7  C   UNL     1      -1.590  -2.237   0.555  0.00  0.00    +0.058 C 
ATOM      8  C   UNL     1      -1.644  -1.829  -0.975  0.00  0.00    +0.085 C 
ENDROOT
BRANCH   8   9
ATOM      9  N   UNL     1      -1.642  -2.927  -1.932  0.00  0.00    -0.323 NA
ATOM     10  H   UNL     1      -1.387  -3.795  -1.468  0.00  0.00    +0.119 HD
ATOM     11  H   UNL     1      -2.591  -3.057  -2.276  0.00  0.00    +0.119 HD
ENDBRANCH   8   9
TORSDOF 1
