REMARK  Name = 
REMARK  24 active torsions:
REMARK  status: ('A' for Active; 'I' for Inactive)
REMARK    1  A    between atoms: C_1  and  C_2
REMARK    2  A    between atoms: C_3  and  C_4
REMARK    3  A    between atoms: C_5  and  C_6
REMARK    4  A    between atoms: C_5  and  C_8
REMARK    5  A    between atoms: C_6  and  C_7
REMARK    6  A    between atoms: C_8  and  O_9
REMARK    7  A    between atoms: O_9  and  C_10
REMARK    8  A    between atoms: C_11  and  N_12
REMARK    9  A    between atoms: C_14  and  C_22
REMARK   10  A    between atoms: C_16  and  C_17
REMARK   11  A    between atoms: C_18  and  C_19
REMARK   12  A    between atoms: C_19  and  C_20
REMARK   13  A    between atoms: C_22  and  C_24
REMARK   14  A    between atoms: C_24  and  C_25
REMARK   15  A    between atoms: C_25  and  C_26
REMARK   16  A    between atoms: C_26  and  C_28
REMARK   17  A    between atoms: C_28  and  C_29
REMARK   18  A    between atoms: C_29  and  C_30
REMARK   19  A    between atoms: C_30  and  N_31
REMARK   20  A    between atoms: N_31  and  C_32
REMARK   21  A    between atoms: C_32  and  N_33
REMARK   22  A    between atoms: N_33  and  C_34
REMARK   23  A    between atoms: C_34  and  C_35
REMARK   24  A    between atoms: C_35  and  N_36
REMARK                            x       y       z     vdW  Elec       q    Type
REMARK                         _______ _______ _______ _____ _____    ______ ____
ROOT
ATOM      1  N   UNL     1      10.677   5.452  -0.993  0.00  0.00    -0.320 N 
ATOM      2  C   UNL     1      11.717   4.679  -1.498  0.00  0.00    +0.101 A 
ATOM      3  C   UNL     1      12.927   5.331  -1.349  0.00  0.00    +0.014 A 
ATOM      4  C   UNL     1      12.638   6.500  -0.609  0.00  0.00    +0.037 A 
ATOM      5  C   UNL     1      11.271   6.569  -0.399  0.00  0.00    +0.047 A 
ENDROOT
BRANCH   3   6
ATOM      6  C   UNL     1      14.218   4.876  -1.849  0.00  0.00    +0.041 C 
ATOM      7  N   UNL     1      14.267   4.129  -2.906  0.00  0.00    -0.303 NA
ATOM      8  H   UNL     1      13.331   3.974  -3.288  0.00  0.00    +0.186 HD
BRANCH   6   9
ATOM      9  C   UNL     1      15.513   5.293  -1.189  0.00  0.00    +0.059 C 
BRANCH   9  10
ATOM     10  C   UNL     1      15.635   4.730   0.230  0.00  0.00    +0.036 C 
BRANCH  10  11
ATOM     11  C   UNL     1      16.914   5.097   0.962  0.00  0.00    -0.076 C 
ATOM     12  C   UNL     1      18.092   5.308   0.347  0.00  0.00    +0.007 C 
BRANCH  11  13
ATOM     13  C   UNL     1      16.817   5.236   2.468  0.00  0.00    +0.031 C 
BRANCH  13  14
ATOM     14  C   UNL     1      17.136   6.652   2.966  0.00  0.00    +0.019 C 
BRANCH  14  15
ATOM     15  C   UNL     1      16.171   7.732   2.455  0.00  0.00    +0.082 C 
BRANCH  15  16
ATOM     16  N   UNL     1      14.760   7.558   2.826  0.00  0.00    -0.304 NA
ATOM     17  H   UNL     1      14.413   6.697   2.410  0.00  0.00    +0.123 HD
BRANCH  16  18
ATOM     18  C   UNL     1      14.538   7.484   4.257  0.00  0.00    +0.165 C 
BRANCH  18  19
ATOM     19  N   UNL     1      14.929   8.760   4.801  0.00  0.00    -0.303 NA
ATOM     20  H   UNL     1      14.273   9.441   4.424  0.00  0.00    +0.123 HD
BRANCH  19  21
ATOM     21  C   UNL     1      14.832   8.774   6.262  0.00  0.00    +0.097 C 
BRANCH  21  22
ATOM     22  C   UNL     1      15.231  10.154   6.817  0.00  0.00    +0.093 C 
BRANCH  22  23
ATOM     23  N   UNL     1      14.409  11.237   6.267  0.00  0.00    -0.329 NA
ATOM     24  H   UNL     1      14.575  11.276   5.261  0.00  0.00    +0.118 HD
ATOM     25  H   UNL     1      14.740  12.124   6.637  0.00  0.00    +0.118 HD
ENDBRANCH  22  23
ENDBRANCH  21  22
ENDBRANCH  19  21
ENDBRANCH  18  19
ENDBRANCH  16  18
ENDBRANCH  15  16
ENDBRANCH  14  15
ENDBRANCH  13  14
ENDBRANCH  11  13
ENDBRANCH  10  11
ENDBRANCH   9  10
ENDBRANCH   6   9
ENDBRANCH   3   6
BRANCH   5  26
ATOM     26  C   UNL     1      10.527   7.565   0.275  0.00  0.00    +0.022 C 
ATOM     27  C   UNL     1      10.343   7.503   1.608  0.00  0.00    -0.019 C 
BRANCH  27  28
ATOM     28  C   UNL     1       9.613   8.562   2.381  0.00  0.00    +0.073 C 
BRANCH  28  29
ATOM     29  C   UNL     1      10.536   9.124   3.434  0.00  0.00    +0.078 C 
ATOM     30  N   UNL     1      10.574   8.688   4.651  0.00  0.00    -0.311 NA
ATOM     31  H   UNL     1       9.893   7.933   4.791  0.00  0.00    +0.186 HD
ENDBRANCH  28  29
ENDBRANCH  27  28
ENDBRANCH   5  26
BRANCH   1  33
ATOM     32  C   UNL     1       8.236   5.830  -1.036  0.00  0.00    +0.205 C 
ATOM     33  C   UNL     1       9.334   5.072  -1.131  0.00  0.00    +0.128 C 
BRANCH  32  34
ATOM     34  O   UNL     1       6.982   5.293  -1.187  0.00  0.00    -0.494 OA
BRANCH  34  35
ATOM     35  C   UNL     1       6.089   6.159  -1.898  0.00  0.00    +0.259 C 
BRANCH  35  37
ATOM     36  C   UNL     1       3.639   5.953  -1.558  0.00  0.00    +0.002 C 
ATOM     37  C   UNL     1       4.767   5.447  -2.109  0.00  0.00    -0.033 C 
BRANCH  36  40
ATOM     38  C   UNL     1      -0.133   5.280  -1.260  0.00  0.00    +0.035 C 
ATOM     39  C   UNL     1       1.214   5.914  -1.119  0.00  0.00    -0.030 C 
ATOM     40  C   UNL     1       2.312   5.384  -1.679  0.00  0.00    -0.004 C 
ENDBRANCH  36  40
BRANCH  37  41
ATOM     41  C   UNL     1       4.745   4.190  -2.968  0.00  0.00    +0.031 C 
ATOM     42  C   UNL     1       6.054   3.712  -3.587  0.00  0.00    +0.008 C 
ENDBRANCH  37  41
ENDBRANCH  35  37
ENDBRANCH  34  35
ENDBRANCH  32  34
ENDBRANCH   1  33
TORSDOF 22
