REMARK  Name = 
REMARK  7 active torsions:
REMARK  status: ('A' for Active; 'I' for Inactive)
REMARK    1  A    between atoms: C_4  and  C_7
REMARK    2  A    between atoms: C_8  and  C_9
REMARK    3  A    between atoms: C_12  and  C_13
REMARK    4  A    between atoms: C_16  and  C_17
REMARK    5  A    between atoms: C_18  and  N_19
REMARK    6  A    between atoms: C_20  and  C_21
REMARK    7  A    between atoms: C_22  and  N_26
REMARK                            x       y       z     vdW  Elec       q    Type
REMARK                         _______ _______ _______ _____ _____    ______ ____
ROOT
ATOM      1  C   UNL     1      -3.273   4.131  -0.602  0.00  0.00    +0.032 C 
ATOM      2  C   UNL     1      -3.858   4.614   0.744  0.00  0.00    +0.037 C 
ATOM      3  C   UNL     1      -5.139   5.342   0.471  0.00  0.00    -0.018 C 
ATOM      4  C   UNL     1      -5.284   6.633   0.114  0.00  0.00    -0.021 C 
ATOM      5  C   UNL     1      -2.408   5.194  -1.362  0.00  0.00    +0.062 C 
ATOM      6  C   UNL     1      -1.945   6.432  -0.560  0.00  0.00    +0.046 C 
ATOM      7  C   UNL     1      -2.882   7.526  -0.116  0.00  0.00    -0.025 C 
ATOM      8  C   UNL     1      -4.194   7.600   0.153  0.00  0.00    +0.004 C 
ENDROOT
BRANCH   4   9
ATOM      9  C   UNL     1      -6.644   7.075  -0.218  0.00  0.00    +0.067 C 
ATOM     10  C   UNL     1      -6.861   8.055  -1.053  0.00  0.00    -0.069 C 
ATOM     11  C   UNL     1      -7.014   8.955  -1.832  0.00  0.00    -0.069 C 
ATOM     12  C   UNL     1      -7.197   9.943  -2.667  0.00  0.00    +0.061 C 
BRANCH  12  13
ATOM     13  C   UNL     1      -6.142  10.484  -3.491  0.00  0.00    +0.028 C 
ATOM     14  C   UNL     1      -6.293  11.503  -4.353  0.00  0.00    +0.111 C 
BRANCH  14  15
ATOM     15  N   UNL     1      -5.240  11.969  -5.099  0.00  0.00    -0.268 NA
ATOM     16  C   UNL     1      -5.473  12.954  -5.904  0.00  0.00    +0.080 C 
ATOM     17  C   UNL     1      -4.370  13.518  -6.753  0.00  0.00    +0.057 C 
ENDBRANCH  14  15
ENDBRANCH  12  13
ENDBRANCH   4   9
BRANCH   5  18
ATOM     18  N   UNL     1      -3.038   5.621  -2.627  0.00  0.00    -0.326 NA
ATOM     19  H   UNL     1      -3.938   6.059  -2.422  0.00  0.00    +0.118 HD
ATOM     20  H   UNL     1      -3.239   4.801  -3.196  0.00  0.00    +0.118 HD
ENDBRANCH   5  18
BRANCH   1  22
ATOM     21  C   UNL     1      -2.837   1.659  -1.010  0.00  0.00    +0.004 C 
ATOM     22  C   UNL     1      -2.534   2.818  -0.390  0.00  0.00    -0.021 C 
BRANCH  21  26
ATOM     23  C   UNL     1      -0.534  -2.001  -0.297  0.00  0.00    +0.031 C 
ATOM     24  C   UNL     1      -1.455  -1.904  -1.522  0.00  0.00    +0.032 C 
ATOM     25  C   UNL     1      -2.091  -0.549  -1.719  0.00  0.00    -0.019 C 
ATOM     26  C   UNL     1      -2.163   0.387  -0.745  0.00  0.00    -0.030 C 
ATOM     27  C   UNL     1      -1.672   0.022   0.581  0.00  0.00    +0.003 C 
ATOM     28  C   UNL     1      -0.912  -1.059   0.805  0.00  0.00    -0.026 C 
ENDBRANCH  21  26
ENDBRANCH   1  22
TORSDOF 6
