REMARK  Name = 
REMARK  10 active torsions:
REMARK  status: ('A' for Active; 'I' for Inactive)
REMARK    1  A    between atoms: C_4  and  C_8
REMARK    2  A    between atoms: C_4  and  N_10
REMARK    3  A    between atoms: C_6  and  C_7
REMARK    4  A    between atoms: N_10  and  C_11
REMARK    5  A    between atoms: C_12  and  C_13
REMARK    6  A    between atoms: C_13  and  C_15
REMARK    7  A    between atoms: C_16  and  C_17
REMARK    8  A    between atoms: C_18  and  N_19
REMARK    9  A    between atoms: C_22  and  C_23
REMARK   10  A    between atoms: C_23  and  C_24
REMARK                            x       y       z     vdW  Elec       q    Type
REMARK                         _______ _______ _______ _____ _____    ______ ____
ROOT
ATOM      1  C   UNL     1       3.112  -1.601   1.560  0.00  0.00    +0.071 C 
ATOM      2  C   UNL     1       3.775  -2.043   2.643  0.00  0.00    +0.042 C 
ENDROOT
BRANCH   2   3
ATOM      3  C   UNL     1       5.219  -1.721   2.891  0.00  0.00    +0.056 C 
ATOM      4  N   UNL     1       5.811  -0.659   2.447  0.00  0.00    -0.300 NA
ATOM      5  H   UNL     1       5.163  -0.061   1.931  0.00  0.00    +0.187 HD
BRANCH   3   6
ATOM      6  C   UNL     1       5.947  -2.710   3.756  0.00  0.00    +0.027 C 
ATOM      7  C   UNL     1       7.245  -2.524   4.063  0.00  0.00    +0.004 C 
BRANCH   7   8
ATOM      8  C   UNL     1       8.044  -3.428   4.876  0.00  0.00    +0.020 C 
ATOM      9  C   UNL     1       9.346  -3.241   5.166  0.00  0.00    +0.122 C 
BRANCH   9  10
ATOM     10  N   UNL     1      10.053  -4.142   5.927  0.00  0.00    -0.205 NA
ATOM     11  C   UNL     1      11.183  -3.879   6.119  0.00  0.00    +0.039 C 
ATOM     12  C   UNL     1      12.346  -3.696   6.380  0.00  0.00    -0.054 C 
ATOM     13  C   UNL     1      13.604  -3.526   6.703  0.00  0.00    +0.034 C 
BRANCH  13  14
ATOM     14  C   UNL     1      14.579  -4.627   6.987  0.00  0.00    +0.033 C 
ATOM     15  C   UNL     1      15.811  -4.553   6.089  0.00  0.00    +0.009 C 
ENDBRANCH  13  14
ENDBRANCH   9  10
ENDBRANCH   7   8
ENDBRANCH   3   6
ENDBRANCH   2   3
BRANCH   1  16
ATOM     16  N   UNL     1       1.775  -1.780   1.208  0.00  0.00    -0.323 N 
ATOM     17  H   UNL     1       1.504  -1.146   0.458  0.00  0.00    +0.148 HD
BRANCH  16  21
ATOM     18  C   UNL     1      -0.500  -4.250  -1.256  0.00  0.00    +0.045 C 
ATOM     19  C   UNL     1       0.948  -4.672  -0.969  0.00  0.00    +0.088 C 
ATOM     20  N   UNL     1       1.782  -3.849  -0.100  0.00  0.00    -0.287 NA
ATOM     21  C   UNL     1       1.136  -3.088   0.970  0.00  0.00    +0.159 C 
ATOM     22  C   UNL     1      -0.332  -2.792   0.731  0.00  0.00    +0.021 C 
ATOM     23  C   UNL     1      -1.092  -3.317  -0.246  0.00  0.00    -0.072 C 
ATOM     24  C   UNL     1      -2.566  -3.055  -0.376  0.00  0.00    +0.039 C 
ATOM     25  H   UNL     1       2.297  -3.173  -0.654  0.00  0.00    +0.125 HD
BRANCH  21  26
ATOM     26  C   UNL     1       1.146  -3.936   2.274  0.00  0.00    +0.269 C 
ATOM     27  O   UNL     1       0.673  -3.596   3.362  0.00  0.00    -0.297 OA
ENDBRANCH  21  26
ENDBRANCH  16  21
ENDBRANCH   1  16
TORSDOF 8
