REMARK  Name = 
REMARK  11 active torsions:
REMARK  status: ('A' for Active; 'I' for Inactive)
REMARK    1  A    between atoms: C_1  and  C_2
REMARK    2  A    between atoms: C_3  and  C_4
REMARK    3  A    between atoms: C_5  and  C_6
REMARK    4  A    between atoms: C_6  and  C_7
REMARK    5  A    between atoms: C_7  and  C_8
REMARK    6  A    between atoms: C_8  and  N_9
REMARK    7  A    between atoms: C_13  and  C_14
REMARK    8  A    between atoms: C_15  and  C_16
REMARK    9  A    between atoms: C_16  and  C_18
REMARK   10  A    between atoms: C_19  and  C_20
REMARK   11  A    between atoms: C_21  and  C_22
REMARK                            x       y       z     vdW  Elec       q    Type
REMARK                         _______ _______ _______ _____ _____    ______ ____
ROOT
ATOM      1  C   UNL     1       8.887   0.846  -3.622  0.00  0.00    +0.136 C 
ATOM      2  C   UNL     1       9.591   2.187  -3.295  0.00  0.00    +0.262 C 
ATOM      3  O   UNL     1       9.756   2.910  -2.334  0.00  0.00    -0.271 OA
ATOM      4  N   UNL     1      10.073   2.289  -4.580  0.00  0.00    -0.181 NA
ATOM      5  C   UNL     1       9.560   1.164  -4.948  0.00  0.00    +0.063 C 
ENDROOT
BRANCH   1   6
ATOM      6  N   UNL     1       9.456  -0.324  -2.887  0.00  0.00    -0.313 NA
ATOM      7  H   UNL     1       9.220  -0.307  -1.892  0.00  0.00    +0.119 HD
ATOM      8  H   UNL     1      10.480  -0.326  -2.897  0.00  0.00    +0.119 HD
ENDBRANCH   1   6
BRANCH   5   9
ATOM      9  C   UNL     1       9.595   0.455  -6.228  0.00  0.00    +0.024 C 
ATOM     10  C   UNL     1       9.104  -0.778  -6.413  0.00  0.00    +0.009 C 
BRANCH  10  11
ATOM     11  C   UNL     1       9.039  -1.484  -7.695  0.00  0.00    -0.032 C 
ATOM     12  C   UNL     1       8.808  -2.812  -7.648  0.00  0.00    +0.017 C 
BRANCH  11  13
ATOM     13  C   UNL     1       9.020  -0.797  -8.989  0.00  0.00    +0.007 C 
ATOM     14  C   UNL     1       9.533  -1.288 -10.129  0.00  0.00    +0.001 C 
BRANCH  14  15
ATOM     15  C   UNL     1       9.552  -0.552 -11.373  0.00  0.00    +0.001 C 
ATOM     16  C   UNL     1      10.095  -1.042 -12.500  0.00  0.00    +0.008 C 
BRANCH  16  17
ATOM     17  C   UNL     1      10.175  -0.331 -13.756  0.00  0.00    -0.018 C 
ATOM     18  C   UNL     1       9.316   0.630 -14.173  0.00  0.00    +0.008 C 
ATOM     19  C   UNL     1       9.658   1.075 -15.511  0.00  0.00    +0.001 C 
ATOM     20  C   UNL     1      10.714   0.376 -15.956  0.00  0.00    +0.008 C 
ATOM     21  C   UNL     1      11.083  -0.543 -14.895  0.00  0.00    -0.025 C 
ATOM     22  C   UNL     1      12.103  -1.405 -14.976  0.00  0.00    +0.017 C 
ENDBRANCH  16  17
ENDBRANCH  14  15
ENDBRANCH  11  13
ENDBRANCH  10  11
ENDBRANCH   5   9
BRANCH   1  23
ATOM     23  C   UNL     1       7.359   0.922  -3.527  0.00  0.00    +0.042 C 
BRANCH  23  24
ATOM     24  C   UNL     1       6.692  -0.263  -4.217  0.00  0.00    +0.030 C 
BRANCH  24  26
ATOM     25  C   UNL     1       4.514  -1.258  -3.574  0.00  0.00    -0.005 C 
ATOM     26  C   UNL     1       5.203  -0.258  -4.138  0.00  0.00    -0.027 C 
BRANCH  25  29
ATOM     27  C   UNL     1       0.898  -2.334  -3.026  0.00  0.00    +0.035 C 
ATOM     28  C   UNL     1       2.387  -2.295  -3.014  0.00  0.00    -0.030 C 
ATOM     29  C   UNL     1       3.078  -1.306  -3.594  0.00  0.00    -0.005 C 
ENDBRANCH  25  29
ENDBRANCH  24  26
ENDBRANCH  23  24
ENDBRANCH   1  23
TORSDOF 10
