REMARK  Name = 
REMARK  10 active torsions:
REMARK  status: ('A' for Active; 'I' for Inactive)
REMARK    1  A    between atoms: C_5  and  N_6
REMARK    2  A    between atoms: N_6  and  C_7
REMARK    3  A    between atoms: C_7  and  C_11
REMARK    4  A    between atoms: C_8  and  N_9
REMARK    5  A    between atoms: N_9  and  C_10
REMARK    6  A    between atoms: C_11  and  C_12
REMARK    7  A    between atoms: C_13  and  C_14
REMARK    8  A    between atoms: C_15  and  C_16
REMARK    9  A    between atoms: C_22  and  C_23
REMARK   10  A    between atoms: C_23  and  N_24
REMARK                            x       y       z     vdW  Elec       q    Type
REMARK                         _______ _______ _______ _____ _____    ______ ____
ROOT
ATOM      1  C   UNL     1       4.791   3.742   0.279  0.00  0.00    -0.002 C 
ATOM      2  C   UNL     1       5.354   4.954  -0.540  0.00  0.00    -0.003 C 
ATOM      3  C   UNL     1       4.551   6.248  -0.298  0.00  0.00    +0.008 C 
ATOM      4  C   UNL     1       6.870   5.254  -0.283  0.00  0.00    +0.019 C 
ATOM      5  C   UNL     1       7.265   5.259   1.205  0.00  0.00    +0.013 C 
ATOM      6  C   UNL     1       7.818   4.390  -1.114  0.00  0.00    -0.048 C 
ATOM      7  C   UNL     1       9.006   4.890  -1.505  0.00  0.00    +0.013 C 
ATOM      8  C   UNL     1       5.426   2.350   0.022  0.00  0.00    +0.009 C 
ATOM      9  C   UNL     1       6.925   2.227  -0.240  0.00  0.00    +0.035 C 
ATOM     10  C   UNL     1       7.422   3.023  -1.429  0.00  0.00    -0.047 C 
ATOM     11  C   UNL     1       7.485   2.439  -2.643  0.00  0.00    -0.008 C 
ENDROOT
BRANCH   1  12
ATOM     12  C   UNL     1       3.234   3.570   0.273  0.00  0.00    +0.055 C 
BRANCH  12  13
ATOM     13  C   UNL     1       2.428   3.418  -1.019  0.00  0.00    +0.022 C 
ATOM     14  C   UNL     1       3.032   3.335  -2.221  0.00  0.00    +0.086 C 
BRANCH  14  15
ATOM     15  N   UNL     1       2.483   3.496  -3.484  0.00  0.00    -0.352 N 
ATOM     16  C   UNL     1       3.333   3.641  -4.652  0.00  0.00    +0.125 C 
ATOM     17  H   UNL     1       1.694   4.138  -3.466  0.00  0.00    +0.145 HD
ENDBRANCH  14  15
BRANCH  13  18
ATOM     18  N   UNL     1       1.041   3.487  -0.913  0.00  0.00    -0.320 N 
ATOM     19  H   UNL     1       0.562   3.430  -1.809  0.00  0.00    +0.152 HD
BRANCH  18  24
ATOM     20  C   UNL     1      -0.982   4.243   0.295  0.00  0.00    +0.051 C 
ATOM     21  C   UNL     1      -1.697   3.765   1.557  0.00  0.00    +0.010 C 
ATOM     22  C   UNL     1      -0.756   2.789   2.255  0.00  0.00    +0.029 C 
ATOM     23  C   UNL     1       0.298   2.531   1.235  0.00  0.00    -0.008 C 
ATOM     24  C   UNL     1       0.216   3.345   0.176  0.00  0.00    +0.004 C 
ENDBRANCH  18  24
ENDBRANCH  13  18
ENDBRANCH  12  13
ENDBRANCH   1  12
BRANCH  11  25
ATOM     25  C   UNL     1       7.909   3.008  -3.962  0.00  0.00    +0.105 C 
BRANCH  25  26
ATOM     26  N   UNL     1       9.033   2.236  -4.473  0.00  0.00    -0.327 NA
ATOM     27  H   UNL     1       9.812   2.325  -3.823  0.00  0.00    +0.119 HD
ATOM     28  H   UNL     1       9.348   2.647  -5.349  0.00  0.00    +0.119 HD
ENDBRANCH  25  26
ENDBRANCH  11  25
TORSDOF 7
