REMARK  Name = 
REMARK  0 active torsions:
REMARK  status: ('A' for Active; 'I' for Inactive)
REMARK                            x       y       z     vdW  Elec       q    Type
REMARK                         _______ _______ _______ _____ _____    ______ ____
ROOT
ATOM      1  C   UNL     1      -1.038   3.270   0.932  0.00  0.00    +0.013 C 
ATOM      2  C   UNL     1      -0.837   4.467   0.333  0.00  0.00    -0.046 C 
ATOM      3  C   UNL     1       0.472   5.064  -0.198  0.00  0.00    +0.039 C 
ATOM      4  C   UNL     1       1.858   4.402  -0.020  0.00  0.00    +0.032 C 
ATOM      5  C   UNL     1       2.209   3.124  -0.741  0.00  0.00    -0.026 C 
ATOM      6  C   UNL     1       1.824   1.898  -0.351  0.00  0.00    -0.004 C 
ATOM      7  C   UNL     1       0.878   1.726   0.759  0.00  0.00    +0.009 C 
ATOM      8  C   UNL     1      -0.422   1.999   0.506  0.00  0.00    -0.005 C 
ATOM      9  C   UNL     1      -1.259   0.792   0.064  0.00  0.00    +0.138 C 
ATOM     10  N   UNL     1      -2.522   0.516  -0.147  0.00  0.00    -0.190 NA
ATOM     11  N   UNL     1      -3.542   1.427  -0.098  0.00  0.00    -0.245 N 
ATOM     12  C   UNL     1      -3.416   2.740  -0.455  0.00  0.00    +0.092 C 
ATOM     13  C   UNL     1      -4.056   3.846  -0.049  0.00  0.00    +0.017 C 
ATOM     14  C   UNL     1      -3.343   5.127  -0.036  0.00  0.00    +0.002 C 
ATOM     15  C   UNL     1      -2.022   5.374   0.186  0.00  0.00    +0.004 C 
ATOM     16  H   UNL     1      -4.462   1.096   0.176  0.00  0.00    +0.174 HD
ENDROOT
TORSDOF 0
